183cfd2d-a543-4691-b979-d5b737c19f95
  rDOCK(R)          3D
libRbt.so/2013.1/901 2013/11/27
 22 23  0  0  0  0  0  0  0  0999 V2000
   -1.2523   27.4637    6.0296 O   0  0  0  0  0  0
   -2.4435   27.8799    5.3254 S   0  0  0  0  0  0
   -3.6968   28.1188    6.0054 O   0  0  0  0  0  0
   -2.7865   26.7542    4.1123 N   0  0  0  0  0  0
   -3.1047   25.4078    4.6309 C   0  0  0  0  0  0
   -1.9844   24.4440    4.3232 C   0  0  0  0  0  0
   -2.2701   23.1077    4.0065 C   0  0  0  0  0  0
   -1.2387   22.2074    3.7365 C   0  0  0  0  0  0
    0.0876   22.6321    3.7847 C   0  0  0  0  0  0
    0.3841   23.9556    4.1053 C   0  0  0  0  0  0
   -0.6459   24.8582    4.3761 C   0  0  0  0  0  0
   -2.0335   29.3097    4.3607 C   0  0  0  0  0  0
   -1.5453   29.1350    3.0630 C   0  0  0  0  0  0
   -1.2075   30.2532    2.2984 C   0  0  0  0  0  0
   -1.3560   31.5484    2.8232 C   0  0  0  0  0  0
   -0.9682   32.7560    2.0021 C   0  0  0  0  0  0
   -0.8277   32.4767    0.6763 F   0  0  0  0  0  0
    0.2173   33.2930    2.4003 F   0  0  0  0  0  0
   -1.8805   33.7651    2.0738 F   0  0  0  0  0  0
   -1.8328   31.7028    4.1366 C   0  0  0  0  0  0
   -2.1723   30.5877    4.9062 C   0  0  0  0  0  0
   -3.5804   27.1051    3.5715 H   0  0  0  0  0  0
  1  2  2  0  0  0
  2  3  2  0  0  0
  2  4  1  0  0  0
  4  5  1  0  0  0
  5  6  1  0  0  0
  6  7  2  0  0  0
  7  8  1  0  0  0
  8  9  2  0  0  0
  9 10  1  0  0  0
 10 11  2  0  0  0
  2 12  1  0  0  0
 12 13  2  0  0  0
 13 14  1  0  0  0
 14 15  2  0  0  0
 15 16  1  0  0  0
 16 17  1  0  0  0
 16 18  1  0  0  0
 16 19  1  0  0  0
 15 20  1  0  0  0
 20 21  2  0  0  0
 11  6  1  0  0  0
 21 12  1  0  0  0
  4 22  1  0  0  0
M  END
>  <CHROM.0>
-59.88758699,69.06491128

>  <CHROM.1>
63.59561580,-109.10698845,-144.18975047,88.59962417,16.26499040,-1.59569729
28.39996176,3.79810002,1.62621149,-0.88866209,2.94817745

>  <Name>
183cfd2d-a543-4691-b979-d5b737c19f95

>  <RI>
4.09162e+07

>  <Rbt.Current_Directory>
/data/work/jku/5V6S/work/40/8dba899c20c42488f2b1a17844994e

>  <Rbt.Executable>
rbdock ($Id: //depot/dev/client3/rdock/2013.1/src/exe/rbdock.cxx#4 $)

>  <Rbt.Library>
libRbt.so (2013.1, Build901 2013/11/27)

>  <Rbt.Parameter_File>
/rDock_2013.1_src/data/scripts/dock.prm

>  <Rbt.Receptor>
docking.prm

>  <SCORE>
-11.4715

>  <SCORE.INTER>
-10.0516

>  <SCORE.INTER.CONST>
1

>  <SCORE.INTER.POLAR>
0

>  <SCORE.INTER.REPUL>
0

>  <SCORE.INTER.ROT>
5

>  <SCORE.INTER.VDW>
-20.4516

>  <SCORE.INTER.norm>
-0.478648

>  <SCORE.INTRA>
0.0936644

>  <SCORE.INTRA.DIHEDRAL>
1.0896

>  <SCORE.INTRA.DIHEDRAL.0>
3.83737

>  <SCORE.INTRA.POLAR>
0

>  <SCORE.INTRA.POLAR.0>
0

>  <SCORE.INTRA.REPUL>
0

>  <SCORE.INTRA.REPUL.0>
0

>  <SCORE.INTRA.VDW>
-0.451138

>  <SCORE.INTRA.VDW.0>
-1.78459

>  <SCORE.INTRA.norm>
0.00446021

>  <SCORE.RESTR>
0

>  <SCORE.RESTR.CAVITY>
0

>  <SCORE.RESTR.norm>
0

>  <SCORE.SYSTEM>
-1.51356

>  <SCORE.SYSTEM.CONST>
0

>  <SCORE.SYSTEM.DIHEDRAL>
0.405581

>  <SCORE.SYSTEM.POLAR>
-0.503024

>  <SCORE.SYSTEM.VDW>
-0.00606441

>  <SCORE.SYSTEM.norm>
-0.072074

>  <SCORE.heavy>
21

>  <SCORE.norm>
-0.546262

>  <enum_code>
B

>  <enum_smi>
O=S(=O)(NCc1ccccc1)c1ccc(C(F)(F)F)cc1

>  <sha256>
129f8588a91260953442428c688d580e9654ccfc067ea20e8a76588bf01b96ac

>  <std_smi>
O=S(=O)(NCc1ccccc1)c1ccc(C(F)(F)F)cc1

>  <uuid>
183cfd2d-a543-4691-b979-d5b737c19f95

$$$$
183cfd2d-a543-4691-b979-d5b737c19f95
  rDOCK(R)          3D
libRbt.so/2013.1/901 2013/11/27
 22 23  0  0  0  0  0  0  0  0999 V2000
   -1.4579   27.9278    6.2210 O   0  0  0  0  0  0
   -1.9032   28.5248    4.9826 S   0  0  0  0  0  0
   -1.1186   28.4599    3.7700 O   0  0  0  0  0  0
   -2.2114   30.1660    5.2431 N   0  0  0  0  0  0
   -2.8887   30.8256    4.1077 C   0  0  0  0  0  0
   -1.8771   31.4609    3.1848 C   0  0  0  0  0  0
   -1.5199   30.8269    1.9857 C   0  0  0  0  0  0
   -0.5738   31.4006    1.1353 C   0  0  0  0  0  0
    0.0275   32.6103    1.4767 C   0  0  0  0  0  0
   -0.3141   33.2461    2.6691 C   0  0  0  0  0  0
   -1.2601   32.6740    3.5216 C   0  0  0  0  0  0
   -3.5344   27.9191    4.6426 C   0  0  0  0  0  0
   -4.5679   28.2166    5.5348 C   0  0  0  0  0  0
   -5.8540   27.7347    5.2838 C   0  0  0  0  0  0
   -6.1148   26.9565    4.1431 C   0  0  0  0  0  0
   -7.5024   26.4169    3.8856 C   0  0  0  0  0  0
   -7.7632   25.2679    4.5692 F   0  0  0  0  0  0
   -7.7092   26.1274    2.5720 F   0  0  0  0  0  0
   -8.4877   27.2893    4.2375 F   0  0  0  0  0  0
   -5.0584   26.6539    3.2664 C   0  0  0  0  0  0
   -3.7698   27.1333    3.5125 C   0  0  0  0  0  0
   -2.7940   30.2488    6.0794 H   0  0  0  0  0  0
  1  2  2  0  0  0
  2  3  2  0  0  0
  2  4  1  0  0  0
  4  5  1  0  0  0
  5  6  1  0  0  0
  6  7  2  0  0  0
  7  8  1  0  0  0
  8  9  2  0  0  0
  9 10  1  0  0  0
 10 11  2  0  0  0
  2 12  1  0  0  0
 12 13  2  0  0  0
 13 14  1  0  0  0
 14 15  2  0  0  0
 15 16  1  0  0  0
 16 17  1  0  0  0
 16 18  1  0  0  0
 16 19  1  0  0  0
 15 20  1  0  0  0
 20 21  2  0  0  0
 11  6  1  0  0  0
 21 12  1  0  0  0
  4 22  1  0  0  0
M  END
>  <CHROM.0>
-59.88758699,-62.67498601

>  <CHROM.1>
-170.19678566,-93.50907924,101.55026654,62.81438336,-82.53976607,-3.67354912
28.77427836,3.91030077,-0.53944951,0.44863317,2.30372364

>  <Name>
183cfd2d-a543-4691-b979-d5b737c19f95

>  <RI>
4.09162e+07

>  <Rbt.Current_Directory>
/data/work/jku/5V6S/work/40/8dba899c20c42488f2b1a17844994e

>  <Rbt.Executable>
rbdock ($Id: //depot/dev/client3/rdock/2013.1/src/exe/rbdock.cxx#4 $)

>  <Rbt.Library>
libRbt.so (2013.1, Build901 2013/11/27)

>  <Rbt.Parameter_File>
/rDock_2013.1_src/data/scripts/dock.prm

>  <Rbt.Receptor>
docking.prm

>  <SCORE>
-9.80642

>  <SCORE.INTER>
-10.3483

>  <SCORE.INTER.CONST>
1

>  <SCORE.INTER.POLAR>
0

>  <SCORE.INTER.REPUL>
0.00122142

>  <SCORE.INTER.ROT>
5

>  <SCORE.INTER.VDW>
-20.7544

>  <SCORE.INTER.norm>
-0.492775

>  <SCORE.INTRA>
-0.479778

>  <SCORE.INTRA.DIHEDRAL>
0.346173

>  <SCORE.INTRA.DIHEDRAL.0>
3.83737

>  <SCORE.INTRA.POLAR>
0

>  <SCORE.INTRA.POLAR.0>
0

>  <SCORE.INTRA.REPUL>
0

>  <SCORE.INTRA.REPUL.0>
0

>  <SCORE.INTRA.VDW>
-0.652864

>  <SCORE.INTRA.VDW.0>
-1.78459

>  <SCORE.INTRA.norm>
-0.0228466

>  <SCORE.RESTR>
0

>  <SCORE.RESTR.CAVITY>
0

>  <SCORE.RESTR.norm>
0

>  <SCORE.SYSTEM>
1.02164

>  <SCORE.SYSTEM.CONST>
0

>  <SCORE.SYSTEM.DIHEDRAL>
0.0428848

>  <SCORE.SYSTEM.REPUL>
0.141751

>  <SCORE.SYSTEM.VDW>
0.291443

>  <SCORE.SYSTEM.norm>
0.0486496

>  <SCORE.heavy>
21

>  <SCORE.norm>
-0.466972

>  <enum_code>
B

>  <enum_smi>
O=S(=O)(NCc1ccccc1)c1ccc(C(F)(F)F)cc1

>  <sha256>
129f8588a91260953442428c688d580e9654ccfc067ea20e8a76588bf01b96ac

>  <std_smi>
O=S(=O)(NCc1ccccc1)c1ccc(C(F)(F)F)cc1

>  <uuid>
183cfd2d-a543-4691-b979-d5b737c19f95

$$$$
183cfd2d-a543-4691-b979-d5b737c19f95
  rDOCK(R)          3D
libRbt.so/2013.1/901 2013/11/27
 22 23  0  0  0  0  0  0  0  0999 V2000
   -4.2049   29.2510    5.3331 O   0  0  0  0  0  0
   -2.8051   28.9000    5.4077 S   0  0  0  0  0  0
   -1.9899   29.2232    6.5572 O   0  0  0  0  0  0
   -2.0014   29.5586    4.0748 N   0  0  0  0  0  0
   -2.0766   31.0327    4.0109 C   0  0  0  0  0  0
   -1.2760   31.5531    2.8416 C   0  0  0  0  0  0
   -0.7156   32.8382    2.8862 C   0  0  0  0  0  0
    0.0122   33.3317    1.8027 C   0  0  0  0  0  0
    0.1835   32.5483    0.6631 C   0  0  0  0  0  0
   -0.3748   31.2725    0.6045 C   0  0  0  0  0  0
   -1.1037   30.7766    1.6869 C   0  0  0  0  0  0
   -2.6608   27.1651    5.0726 C   0  0  0  0  0  0
   -3.7832   26.3480    5.2317 C   0  0  0  0  0  0
   -3.6783   24.9783    4.9826 C   0  0  0  0  0  0
   -2.4560   24.4185    4.5732 C   0  0  0  0  0  0
   -2.3392   22.9325    4.3265 C   0  0  0  0  0  0
   -1.0719   22.4620    4.4944 F   0  0  0  0  0  0
   -2.7028   22.5882    3.0610 F   0  0  0  0  0  0
   -3.1232   22.1905    5.1575 F   0  0  0  0  0  0
   -1.3341   25.2542    4.4353 C   0  0  0  0  0  0
   -1.4332   26.6253    4.6831 C   0  0  0  0  0  0
   -1.0212   29.2713    4.1239 H   0  0  0  0  0  0
  1  2  2  0  0  0
  2  3  2  0  0  0
  2  4  1  0  0  0
  4  5  1  0  0  0
  5  6  1  0  0  0
  6  7  2  0  0  0
  7  8  1  0  0  0
  8  9  2  0  0  0
  9 10  1  0  0  0
 10 11  2  0  0  0
  2 12  1  0  0  0
 12 13  2  0  0  0
 13 14  1  0  0  0
 14 15  2  0  0  0
 15 16  1  0  0  0
 16 17  1  0  0  0
 16 18  1  0  0  0
 16 19  1  0  0  0
 15 20  1  0  0  0
 20 21  2  0  0  0
 11  6  1  0  0  0
 21 12  1  0  0  0
  4 22  1  0  0  0
M  END
>  <CHROM.0>
-59.88758699,-178.59906623

>  <CHROM.1>
60.76106149,176.90165069,-152.21847180,-20.58574517,-153.90469903,-2.03720320
27.68393643,4.04610809,1.24008490,0.99724064,0.04167182

>  <Name>
183cfd2d-a543-4691-b979-d5b737c19f95

>  <RI>
4.09162e+07

>  <Rbt.Current_Directory>
/data/work/jku/5V6S/work/40/8dba899c20c42488f2b1a17844994e

>  <Rbt.Executable>
rbdock ($Id: //depot/dev/client3/rdock/2013.1/src/exe/rbdock.cxx#4 $)

>  <Rbt.Library>
libRbt.so (2013.1, Build901 2013/11/27)

>  <Rbt.Parameter_File>
/rDock_2013.1_src/data/scripts/dock.prm

>  <Rbt.Receptor>
docking.prm

>  <SCORE>
-11.7881

>  <SCORE.INTER>
-11.1161

>  <SCORE.INTER.CONST>
1

>  <SCORE.INTER.POLAR>
0

>  <SCORE.INTER.REPUL>
0

>  <SCORE.INTER.ROT>
5

>  <SCORE.INTER.VDW>
-21.5161

>  <SCORE.INTER.norm>
-0.529336

>  <SCORE.INTRA>
-0.405376

>  <SCORE.INTRA.DIHEDRAL>
-1.12558

>  <SCORE.INTRA.DIHEDRAL.0>
3.83737

>  <SCORE.INTRA.POLAR>
0

>  <SCORE.INTRA.POLAR.0>
0

>  <SCORE.INTRA.REPUL>
0

>  <SCORE.INTRA.REPUL.0>
0

>  <SCORE.INTRA.VDW>
0.157415

>  <SCORE.INTRA.VDW.0>
-1.78459

>  <SCORE.INTRA.norm>
-0.0193036

>  <SCORE.RESTR>
0

>  <SCORE.RESTR.CAVITY>
0

>  <SCORE.RESTR.norm>
0

>  <SCORE.SYSTEM>
-0.266668

>  <SCORE.SYSTEM.CONST>
0

>  <SCORE.SYSTEM.DIHEDRAL>
0.0173121

>  <SCORE.SYSTEM.VDW>
-0.275324

>  <SCORE.SYSTEM.norm>
-0.0126985

>  <SCORE.heavy>
21

>  <SCORE.norm>
-0.561338

>  <enum_code>
B

>  <enum_smi>
O=S(=O)(NCc1ccccc1)c1ccc(C(F)(F)F)cc1

>  <sha256>
129f8588a91260953442428c688d580e9654ccfc067ea20e8a76588bf01b96ac

>  <std_smi>
O=S(=O)(NCc1ccccc1)c1ccc(C(F)(F)F)cc1

>  <uuid>
183cfd2d-a543-4691-b979-d5b737c19f95

$$$$
183cfd2d-a543-4691-b979-d5b737c19f95
  rDOCK(R)          3D
libRbt.so/2013.1/901 2013/11/27
 22 23  0  0  0  0  0  0  0  0999 V2000
   -1.6469   31.8315    5.7765 O   0  0  0  0  0  0
   -2.2088   31.1158    4.6539 S   0  0  0  0  0  0
   -3.6210   31.1511    4.3463 O   0  0  0  0  0  0
   -1.8090   29.4793    4.7895 N   0  0  0  0  0  0
   -2.3210   28.8481    6.0233 C   0  0  0  0  0  0
   -2.1626   27.3484    5.9553 C   0  0  0  0  0  0
   -0.9924   26.7400    6.4331 C   0  0  0  0  0  0
   -0.8325   25.3557    6.3590 C   0  0  0  0  0  0
   -1.8376   24.5667    5.8032 C   0  0  0  0  0  0
   -3.0017   25.1606    5.3186 C   0  0  0  0  0  0
   -3.1639   26.5453    5.3913 C   0  0  0  0  0  0
   -1.2953   31.5732    3.2049 C   0  0  0  0  0  0
   -0.7688   32.8645    3.1147 C   0  0  0  0  0  0
   -0.0582   33.2399    1.9731 C   0  0  0  0  0  0
    0.1312   32.3303    0.9187 C   0  0  0  0  0  0
    0.8807   32.7462   -0.3255 C   0  0  0  0  0  0
    0.1493   32.5942   -1.4646 F   0  0  0  0  0  0
    2.0182   32.0221   -0.5103 F   0  0  0  0  0  0
    1.2665   34.0525   -0.3042 F   0  0  0  0  0  0
   -0.4206   31.0415    1.0210 C   0  0  0  0  0  0
   -1.1325   30.6604    2.1608 C   0  0  0  0  0  0
   -2.1923   28.9924    3.9760 H   0  0  0  0  0  0
  1  2  2  0  0  0
  2  3  2  0  0  0
  2  4  1  0  0  0
  4  5  1  0  0  0
  5  6  1  0  0  0
  6  7  2  0  0  0
  7  8  1  0  0  0
  8  9  2  0  0  0
  9 10  1  0  0  0
 10 11  2  0  0  0
  2 12  1  0  0  0
 12 13  2  0  0  0
 13 14  1  0  0  0
 14 15  2  0  0  0
 15 16  1  0  0  0
 16 17  1  0  0  0
 16 18  1  0  0  0
 16 19  1  0  0  0
 15 20  1  0  0  0
 20 21  2  0  0  0
 11  6  1  0  0  0
 21 12  1  0  0  0
  4 22  1  0  0  0
M  END
>  <CHROM.0>
-59.88758699,68.16427465

>  <CHROM.1>
60.10883487,169.11008449,90.31016278,-32.36487491,-122.72550953,-1.07286787
30.29097415,3.26594033,2.18125415,-0.99072635,2.90993698

>  <Name>
183cfd2d-a543-4691-b979-d5b737c19f95

>  <RI>
4.09162e+07

>  <Rbt.Current_Directory>
/data/work/jku/5V6S/work/40/8dba899c20c42488f2b1a17844994e

>  <Rbt.Executable>
rbdock ($Id: //depot/dev/client3/rdock/2013.1/src/exe/rbdock.cxx#4 $)

>  <Rbt.Library>
libRbt.so (2013.1, Build901 2013/11/27)

>  <Rbt.Parameter_File>
/rDock_2013.1_src/data/scripts/dock.prm

>  <Rbt.Receptor>
docking.prm

>  <SCORE>
-14.5055

>  <SCORE.INTER>
-12.3818

>  <SCORE.INTER.CONST>
1

>  <SCORE.INTER.POLAR>
0

>  <SCORE.INTER.REPUL>
0

>  <SCORE.INTER.ROT>
5

>  <SCORE.INTER.VDW>
-22.7818

>  <SCORE.INTER.norm>
-0.589609

>  <SCORE.INTRA>
-0.612641

>  <SCORE.INTRA.DIHEDRAL>
-0.918344

>  <SCORE.INTRA.DIHEDRAL.0>
3.83737

>  <SCORE.INTRA.POLAR>
0

>  <SCORE.INTRA.POLAR.0>
0

>  <SCORE.INTRA.REPUL>
0

>  <SCORE.INTRA.REPUL.0>
0

>  <SCORE.INTRA.VDW>
-0.153469

>  <SCORE.INTRA.VDW.0>
-1.78459

>  <SCORE.INTRA.norm>
-0.0291734

>  <SCORE.RESTR>
0

>  <SCORE.RESTR.CAVITY>
0

>  <SCORE.RESTR.norm>
0

>  <SCORE.SYSTEM>
-1.51102

>  <SCORE.SYSTEM.CONST>
0

>  <SCORE.SYSTEM.DIHEDRAL>
0.331584

>  <SCORE.SYSTEM.POLAR>
-0.502191

>  <SCORE.SYSTEM.VDW>
0.0306336

>  <SCORE.SYSTEM.norm>
-0.0719535

>  <SCORE.heavy>
21

>  <SCORE.norm>
-0.690736

>  <enum_code>
B

>  <enum_smi>
O=S(=O)(NCc1ccccc1)c1ccc(C(F)(F)F)cc1

>  <sha256>
129f8588a91260953442428c688d580e9654ccfc067ea20e8a76588bf01b96ac

>  <std_smi>
O=S(=O)(NCc1ccccc1)c1ccc(C(F)(F)F)cc1

>  <uuid>
183cfd2d-a543-4691-b979-d5b737c19f95

$$$$
183cfd2d-a543-4691-b979-d5b737c19f95
  rDOCK(R)          3D
libRbt.so/2013.1/901 2013/11/27
 22 23  0  0  0  0  0  0  0  0999 V2000
    0.6489   24.8547    6.7163 O   0  0  0  0  0  0
    0.0915   25.2767    5.4517 S   0  0  0  0  0  0
    0.9203   25.5699    4.3038 O   0  0  0  0  0  0
   -0.8534   26.6557    5.7002 N   0  0  0  0  0  0
   -1.5476   27.1216    4.4819 C   0  0  0  0  0  0
   -1.7243   28.6205    4.5142 C   0  0  0  0  0  0
   -2.1305   29.2578    5.6958 C   0  0  0  0  0  0
   -2.3111   30.6411    5.7287 C   0  0  0  0  0  0
   -2.0921   31.4001    4.5807 C   0  0  0  0  0  0
   -1.6953   30.7770    3.3989 C   0  0  0  0  0  0
   -1.5142   29.3932    3.3633 C   0  0  0  0  0  0
   -1.1432   24.0951    4.9800 C   0  0  0  0  0  0
   -2.3292   24.0233    5.7155 C   0  0  0  0  0  0
   -3.3035   23.0883    5.3609 C   0  0  0  0  0  0
   -3.1002   22.2232    4.2723 C   0  0  0  0  0  0
   -4.1462   21.1968    3.9046 C   0  0  0  0  0  0
   -3.7358   20.3446    2.9243 F   0  0  0  0  0  0
   -5.2940   21.7685    3.4488 F   0  0  0  0  0  0
   -4.5106   20.4074    4.9534 F   0  0  0  0  0  0
   -1.8935   22.2994    3.5552 C   0  0  0  0  0  0
   -0.9152   23.2329    3.9055 C   0  0  0  0  0  0
   -1.5448   26.4387    6.4217 H   0  0  0  0  0  0
  1  2  2  0  0  0
  2  3  2  0  0  0
  2  4  1  0  0  0
  4  5  1  0  0  0
  5  6  1  0  0  0
  6  7  2  0  0  0
  7  8  1  0  0  0
  8  9  2  0  0  0
  9 10  1  0  0  0
 10 11  2  0  0  0
  2 12  1  0  0  0
 12 13  2  0  0  0
 13 14  1  0  0  0
 14 15  2  0  0  0
 15 16  1  0  0  0
 16 17  1  0  0  0
 16 18  1  0  0  0
 16 19  1  0  0  0
 15 20  1  0  0  0
 20 21  2  0  0  0
 11  6  1  0  0  0
 21 12  1  0  0  0
  4 22  1  0  0  0
M  END
>  <CHROM.0>
-59.88758699,68.28969150

>  <CHROM.1>
-176.12156949,-149.36218471,-43.04110990,69.07441336,-173.23091979,-1.97468329
25.11226715,4.64765891,-1.27799380,0.35382772,3.12573048

>  <Name>
183cfd2d-a543-4691-b979-d5b737c19f95

>  <RI>
4.09162e+07

>  <Rbt.Current_Directory>
/data/work/jku/5V6S/work/40/8dba899c20c42488f2b1a17844994e

>  <Rbt.Executable>
rbdock ($Id: //depot/dev/client3/rdock/2013.1/src/exe/rbdock.cxx#4 $)

>  <Rbt.Library>
libRbt.so (2013.1, Build901 2013/11/27)

>  <Rbt.Parameter_File>
/rDock_2013.1_src/data/scripts/dock.prm

>  <Rbt.Receptor>
docking.prm

>  <SCORE>
-12.5569

>  <SCORE.INTER>
-11.1957

>  <SCORE.INTER.CONST>
1

>  <SCORE.INTER.POLAR>
0

>  <SCORE.INTER.REPUL>
0

>  <SCORE.INTER.ROT>
5

>  <SCORE.INTER.VDW>
-21.5957

>  <SCORE.INTER.norm>
-0.533131

>  <SCORE.INTRA>
0.149452

>  <SCORE.INTRA.DIHEDRAL>
0.0559098

>  <SCORE.INTRA.DIHEDRAL.0>
3.83737

>  <SCORE.INTRA.POLAR>
0

>  <SCORE.INTRA.POLAR.0>
0

>  <SCORE.INTRA.REPUL>
0

>  <SCORE.INTRA.REPUL.0>
0

>  <SCORE.INTRA.VDW>
0.121497

>  <SCORE.INTRA.VDW.0>
-1.78459

>  <SCORE.INTRA.norm>
0.00711677

>  <SCORE.RESTR>
0.00119357

>  <SCORE.RESTR.CAVITY>
0.00119357

>  <SCORE.RESTR.norm>
5.68367e-05

>  <SCORE.SYSTEM>
-1.51184

>  <SCORE.SYSTEM.CONST>
0

>  <SCORE.SYSTEM.DIHEDRAL>
0.341455

>  <SCORE.SYSTEM.POLAR>
-0.502347

>  <SCORE.SYSTEM.VDW>
0.0254101

>  <SCORE.SYSTEM.norm>
-0.0719924

>  <SCORE.heavy>
21

>  <SCORE.norm>
-0.597949

>  <enum_code>
B

>  <enum_smi>
O=S(=O)(NCc1ccccc1)c1ccc(C(F)(F)F)cc1

>  <sha256>
129f8588a91260953442428c688d580e9654ccfc067ea20e8a76588bf01b96ac

>  <std_smi>
O=S(=O)(NCc1ccccc1)c1ccc(C(F)(F)F)cc1

>  <uuid>
183cfd2d-a543-4691-b979-d5b737c19f95

$$$$
1b32740e-1092-44f0-95ec-5ec2d623fdc4
  rDOCK(R)          3D
libRbt.so/2013.1/901 2013/11/27
 21 22  0  0  0  0  0  0  0  0999 V2000
   -1.9628   28.8125    6.5551 O   0  0  0  0  0  0
   -2.4542   28.6424    5.1887 S   0  0  0  0  0  0
   -3.9089   28.7105    5.0616 O   0  0  0  0  0  0
   -1.6575   29.4462    4.0649 N   0  5  0  0  0  0
   -2.1130   30.8240    3.9137 C   0  0  0  0  0  0
   -1.3081   31.4681    2.8052 C   0  0  0  0  0  0
   -1.0534   30.7761    1.6137 C   0  0  0  0  0  0
   -0.3085   31.3703    0.5934 C   0  0  0  0  0  0
    0.1946   32.6604    0.7570 C   0  0  0  0  0  0
   -0.0417   33.3540    1.9432 C   0  0  0  0  0  0
   -0.7865   32.7595    2.9635 C   0  0  0  0  0  0
   -2.1512   26.8825    4.8603 C   0  0  0  0  0  0
   -3.2149   25.9835    4.7956 C   0  0  0  0  0  0
   -2.9552   24.6363    4.5395 C   0  0  0  0  0  0
   -1.6362   24.1857    4.3499 C   0  0  0  0  0  0
   -1.3618   22.7356    4.0508 C   0  0  0  0  0  0
   -1.5291   22.4293    2.7330 F   0  0  0  0  0  0
   -0.0893   22.3504    4.3587 F   0  0  0  0  0  0
   -2.1750   21.8782    4.7332 F   0  0  0  0  0  0
   -0.5807   25.1131    4.4044 C   0  0  0  0  0  0
   -0.8359   26.4605    4.6606 C   0  0  0  0  0  0
  1  2  2  0  0  0
  2  3  2  0  0  0
  2  4  1  0  0  0
  4  5  1  0  0  0
  5  6  1  0  0  0
  6  7  2  0  0  0
  7  8  1  0  0  0
  8  9  2  0  0  0
  9 10  1  0  0  0
 10 11  2  0  0  0
  2 12  1  0  0  0
 12 13  2  0  0  0
 13 14  1  0  0  0
 14 15  2  0  0  0
 15 16  1  0  0  0
 16 17  1  0  0  0
 16 18  1  0  0  0
 16 19  1  0  0  0
 15 20  1  0  0  0
 20 21  2  0  0  0
 11  6  1  0  0  0
 21 12  1  0  0  0
M  END
>  <CHROM.0>
-59.88758699,68.88622424

>  <CHROM.1>
-84.61090951,-178.75449495,43.44644862,108.06615241,82.18370413,-1.59036753
27.48853175,3.89336373,1.44544061,0.96786629,-0.09875985

>  <Name>
1b32740e-1092-44f0-95ec-5ec2d623fdc4

>  <RI>
2.11694e+07

>  <Rbt.Current_Directory>
/data/work/jku/5V6S/work/40/8dba899c20c42488f2b1a17844994e

>  <Rbt.Executable>
rbdock ($Id: //depot/dev/client3/rdock/2013.1/src/exe/rbdock.cxx#4 $)

>  <Rbt.Library>
libRbt.so (2013.1, Build901 2013/11/27)

>  <Rbt.Parameter_File>
/rDock_2013.1_src/data/scripts/dock.prm

>  <Rbt.Receptor>
docking.prm

>  <SCORE>
-11.9727

>  <SCORE.INTER>
-10.912

>  <SCORE.INTER.CONST>
1

>  <SCORE.INTER.POLAR>
0

>  <SCORE.INTER.REPUL>
0

>  <SCORE.INTER.ROT>
5

>  <SCORE.INTER.VDW>
-21.312

>  <SCORE.INTER.norm>
-0.519621

>  <SCORE.INTRA>
0.45299

>  <SCORE.INTRA.DIHEDRAL>
0.191911

>  <SCORE.INTRA.DIHEDRAL.0>
5.12505

>  <SCORE.INTRA.POLAR>
0

>  <SCORE.INTRA.POLAR.0>
0

>  <SCORE.INTRA.REPUL>
0

>  <SCORE.INTRA.REPUL.0>
0

>  <SCORE.INTRA.VDW>
0.357035

>  <SCORE.INTRA.VDW.0>
-1.78461

>  <SCORE.INTRA.norm>
0.021571

>  <SCORE.RESTR>
0

>  <SCORE.RESTR.CAVITY>
0

>  <SCORE.RESTR.norm>
0

>  <SCORE.SYSTEM>
-1.51367

>  <SCORE.SYSTEM.CONST>
0

>  <SCORE.SYSTEM.DIHEDRAL>
0.390328

>  <SCORE.SYSTEM.POLAR>
-0.502911

>  <SCORE.SYSTEM.VDW>
0.00106756

>  <SCORE.SYSTEM.norm>
-0.0720793

>  <SCORE.heavy>
21

>  <SCORE.norm>
-0.57013

>  <enum_code>
M

>  <enum_smi>
O=S(=O)([N-]Cc1ccccc1)c1ccc(C(F)(F)F)cc1

>  <sha256>
129f8588a91260953442428c688d580e9654ccfc067ea20e8a76588bf01b96ac

>  <std_smi>
O=S(=O)(NCc1ccccc1)c1ccc(C(F)(F)F)cc1

>  <uuid>
1b32740e-1092-44f0-95ec-5ec2d623fdc4

$$$$
1b32740e-1092-44f0-95ec-5ec2d623fdc4
  rDOCK(R)          3D
libRbt.so/2013.1/901 2013/11/27
 21 22  0  0  0  0  0  0  0  0999 V2000
    0.1141   25.9931    5.0002 O   0  0  0  0  0  0
   -1.2286   25.8924    5.5699 S   0  0  0  0  0  0
   -1.2522   25.6749    7.0152 O   0  0  0  0  0  0
   -2.2802   26.9732    5.0503 N   0  5  0  0  0  0
   -1.7698   28.3391    5.0984 C   0  0  0  0  0  0
   -1.4365   28.7684    3.6855 C   0  0  0  0  0  0
   -1.5547   30.1106    3.3010 C   0  0  0  0  0  0
   -1.2497   30.5047    1.9969 C   0  0  0  0  0  0
   -0.8296   29.5591    1.0623 C   0  0  0  0  0  0
   -0.7203   28.2185    1.4298 C   0  0  0  0  0  0
   -1.0254   27.8247    2.7340 C   0  0  0  0  0  0
   -1.8136   24.2856    4.9593 C   0  0  0  0  0  0
   -1.0362   23.5425    4.0720 C   0  0  0  0  0  0
   -1.5077   22.3093    3.6194 C   0  0  0  0  0  0
   -2.7538   21.8185    4.0495 C   0  0  0  0  0  0
   -3.2489   20.4772    3.5772 C   0  0  0  0  0  0
   -2.4797   19.4447    4.0254 F   0  0  0  0  0  0
   -4.5193   20.1936    3.9871 F   0  0  0  0  0  0
   -3.2711   20.3555    2.2182 F   0  0  0  0  0  0
   -3.5136   22.5784    4.9565 C   0  0  0  0  0  0
   -3.0461   23.8116    5.4110 C   0  0  0  0  0  0
  1  2  2  0  0  0
  2  3  2  0  0  0
  2  4  1  0  0  0
  4  5  1  0  0  0
  5  6  1  0  0  0
  6  7  2  0  0  0
  7  8  1  0  0  0
  8  9  2  0  0  0
  9 10  1  0  0  0
 10 11  2  0  0  0
  2 12  1  0  0  0
 12 13  2  0  0  0
 13 14  1  0  0  0
 14 15  2  0  0  0
 15 16  1  0  0  0
 16 17  1  0  0  0
 16 18  1  0  0  0
 16 19  1  0  0  0
 15 20  1  0  0  0
 20 21  2  0  0  0
 11  6  1  0  0  0
 21 12  1  0  0  0
M  END
>  <CHROM.0>
-59.88758699,68.86578047

>  <CHROM.1>
-49.13578377,105.16561045,148.80561366,-4.53389849,65.45889360,-1.93815026
24.88565719,4.05657411,-0.43516399,1.30789348,1.94859663

>  <Name>
1b32740e-1092-44f0-95ec-5ec2d623fdc4

>  <RI>
2.11694e+07

>  <Rbt.Current_Directory>
/data/work/jku/5V6S/work/40/8dba899c20c42488f2b1a17844994e

>  <Rbt.Executable>
rbdock ($Id: //depot/dev/client3/rdock/2013.1/src/exe/rbdock.cxx#4 $)

>  <Rbt.Library>
libRbt.so (2013.1, Build901 2013/11/27)

>  <Rbt.Parameter_File>
/rDock_2013.1_src/data/scripts/dock.prm

>  <Rbt.Receptor>
docking.prm

>  <SCORE>
-11.5872

>  <SCORE.INTER>
-9.1346

>  <SCORE.INTER.CONST>
1

>  <SCORE.INTER.POLAR>
0

>  <SCORE.INTER.REPUL>
0

>  <SCORE.INTER.ROT>
5

>  <SCORE.INTER.VDW>
-19.5346

>  <SCORE.INTER.norm>
-0.434981

>  <SCORE.INTRA>
-0.938908

>  <SCORE.INTRA.DIHEDRAL>
-1.87185

>  <SCORE.INTRA.DIHEDRAL.0>
5.12505

>  <SCORE.INTRA.POLAR>
0

>  <SCORE.INTRA.POLAR.0>
0

>  <SCORE.INTRA.REPUL>
0

>  <SCORE.INTRA.REPUL.0>
0

>  <SCORE.INTRA.VDW>
-0.00298363

>  <SCORE.INTRA.VDW.0>
-1.78461

>  <SCORE.INTRA.norm>
-0.0447099

>  <SCORE.RESTR>
0

>  <SCORE.RESTR.CAVITY>
0

>  <SCORE.RESTR.norm>
0

>  <SCORE.SYSTEM>
-1.51366

>  <SCORE.SYSTEM.CONST>
0

>  <SCORE.SYSTEM.DIHEDRAL>
0.388601

>  <SCORE.SYSTEM.POLAR>
-0.502897

>  <SCORE.SYSTEM.VDW>
0.00188819

>  <SCORE.SYSTEM.norm>
-0.072079

>  <SCORE.heavy>
21

>  <SCORE.norm>
-0.55177

>  <enum_code>
M

>  <enum_smi>
O=S(=O)([N-]Cc1ccccc1)c1ccc(C(F)(F)F)cc1

>  <sha256>
129f8588a91260953442428c688d580e9654ccfc067ea20e8a76588bf01b96ac

>  <std_smi>
O=S(=O)(NCc1ccccc1)c1ccc(C(F)(F)F)cc1

>  <uuid>
1b32740e-1092-44f0-95ec-5ec2d623fdc4

$$$$
1b32740e-1092-44f0-95ec-5ec2d623fdc4
  rDOCK(R)          3D
libRbt.so/2013.1/901 2013/11/27
 21 22  0  0  0  0  0  0  0  0999 V2000
   -3.7366   28.3184    5.3262 O   0  0  0  0  0  0
   -2.6028   29.0156    5.9311 S   0  0  0  0  0  0
   -2.9780   30.0332    6.9112 O   0  0  0  0  0  0
   -1.3838   28.0895    6.3784 N   0  5  0  0  0  0
   -1.7821   26.7150    6.6628 C   0  0  0  0  0  0
   -1.0010   25.7981    5.7458 C   0  0  0  0  0  0
   -0.5607   26.2474    4.4937 C   0  0  0  0  0  0
    0.1571   25.3999    3.6479 C   0  0  0  0  0  0
    0.4362   24.0921    4.0431 C   0  0  0  0  0  0
   -0.0077   23.6299    5.2815 C   0  0  0  0  0  0
   -0.7256   24.4776    6.1271 C   0  0  0  0  0  0
   -1.9812   30.0449    4.5706 C   0  0  0  0  0  0
   -1.8956   31.4290    4.7153 C   0  0  0  0  0  0
   -1.4122   32.1973    3.6552 C   0  0  0  0  0  0
   -1.0164   31.5866    2.4515 C   0  0  0  0  0  0
   -0.4736   32.4164    1.3183 C   0  0  0  0  0  0
    0.6441   31.8739    0.7571 F   0  0  0  0  0  0
   -1.3588   32.5771    0.2921 F   0  0  0  0  0  0
   -0.1200   33.6801    1.6929 F   0  0  0  0  0  0
   -1.0973   30.1877    2.3339 C   0  0  0  0  0  0
   -1.5802   29.4161    3.3909 C   0  0  0  0  0  0
  1  2  2  0  0  0
  2  3  2  0  0  0
  2  4  1  0  0  0
  4  5  1  0  0  0
  5  6  1  0  0  0
  6  7  2  0  0  0
  7  8  1  0  0  0
  8  9  2  0  0  0
  9 10  1  0  0  0
 10 11  2  0  0  0
  2 12  1  0  0  0
 12 13  2  0  0  0
 13 14  1  0  0  0
 14 15  2  0  0  0
 15 16  1  0  0  0
 16 17  1  0  0  0
 16 18  1  0  0  0
 16 19  1  0  0  0
 15 20  1  0  0  0
 20 21  2  0  0  0
 11  6  1  0  0  0
 21 12  1  0  0  0
M  END
>  <CHROM.0>
-59.88758699,69.45669204

>  <CHROM.1>
-25.26179568,121.28032544,-28.19807446,122.35498484,134.77558741,-1.24682113
29.12001851,4.07473148,1.62884126,-0.92643013,2.66893408

>  <Name>
1b32740e-1092-44f0-95ec-5ec2d623fdc4

>  <RI>
2.11694e+07

>  <Rbt.Current_Directory>
/data/work/jku/5V6S/work/40/8dba899c20c42488f2b1a17844994e

>  <Rbt.Executable>
rbdock ($Id: //depot/dev/client3/rdock/2013.1/src/exe/rbdock.cxx#4 $)

>  <Rbt.Library>
libRbt.so (2013.1, Build901 2013/11/27)

>  <Rbt.Parameter_File>
/rDock_2013.1_src/data/scripts/dock.prm

>  <Rbt.Receptor>
docking.prm

>  <SCORE>
-12.7887

>  <SCORE.INTER>
-10.7344

>  <SCORE.INTER.CONST>
1

>  <SCORE.INTER.POLAR>
0

>  <SCORE.INTER.REPUL>
0

>  <SCORE.INTER.ROT>
5

>  <SCORE.INTER.VDW>
-21.1344

>  <SCORE.INTER.norm>
-0.511162

>  <SCORE.INTRA>
-0.542081

>  <SCORE.INTRA.DIHEDRAL>
-1.55642

>  <SCORE.INTRA.DIHEDRAL.0>
5.12505

>  <SCORE.INTRA.POLAR>
0

>  <SCORE.INTRA.POLAR.0>
0

>  <SCORE.INTRA.REPUL>
0

>  <SCORE.INTRA.REPUL.0>
0

>  <SCORE.INTRA.VDW>
0.23613

>  <SCORE.INTRA.VDW.0>
-1.78461

>  <SCORE.INTRA.norm>
-0.0258134

>  <SCORE.RESTR>
0

>  <SCORE.RESTR.CAVITY>
0

>  <SCORE.RESTR.norm>
0

>  <SCORE.SYSTEM>
-1.51226

>  <SCORE.SYSTEM.CONST>
0

>  <SCORE.SYSTEM.DIHEDRAL>
0.440003

>  <SCORE.SYSTEM.POLAR>
-0.503181

>  <SCORE.SYSTEM.VDW>
-0.0214478

>  <SCORE.SYSTEM.norm>
-0.0720125

>  <SCORE.heavy>
21

>  <SCORE.norm>
-0.608988

>  <enum_code>
M

>  <enum_smi>
O=S(=O)([N-]Cc1ccccc1)c1ccc(C(F)(F)F)cc1

>  <sha256>
129f8588a91260953442428c688d580e9654ccfc067ea20e8a76588bf01b96ac

>  <std_smi>
O=S(=O)(NCc1ccccc1)c1ccc(C(F)(F)F)cc1

>  <uuid>
1b32740e-1092-44f0-95ec-5ec2d623fdc4

$$$$
1b32740e-1092-44f0-95ec-5ec2d623fdc4
  rDOCK(R)          3D
libRbt.so/2013.1/901 2013/11/27
 21 22  0  0  0  0  0  0  0  0999 V2000
   -3.3070   27.2975    5.5422 O   0  0  0  0  0  0
   -1.8861   27.6285    5.6373 S   0  0  0  0  0  0
   -1.4544   28.0413    6.9715 O   0  0  0  0  0  0
   -0.8926   26.6158    4.9085 N   0  5  0  0  0  0
   -0.5864   25.4361    5.7105 C   0  0  0  0  0  0
   -1.1785   24.2276    5.0173 C   0  0  0  0  0  0
   -2.4637   23.7756    5.3450 C   0  0  0  0  0  0
   -3.0075   22.6593    4.7069 C   0  0  0  0  0  0
   -2.2688   21.9798    3.7391 C   0  0  0  0  0  0
   -0.9839   22.4127    3.4136 C   0  0  0  0  0  0
   -0.4403   23.5290    4.0519 C   0  0  0  0  0  0
   -1.7681   29.1943    4.7256 C   0  0  0  0  0  0
   -1.4029   29.2015    3.3800 C   0  0  0  0  0  0
   -1.3217   30.4184    2.7014 C   0  0  0  0  0  0
   -1.6025   31.6269    3.3642 C   0  0  0  0  0  0
   -1.5364   32.9359    2.6228 C   0  0  0  0  0  0
   -0.3021   33.1823    2.0990 F   0  0  0  0  0  0
   -2.4027   33.0070    1.5707 F   0  0  0  0  0  0
   -1.8260   34.0165    3.4043 F   0  0  0  0  0  0
   -1.9836   31.5940    4.7173 C   0  0  0  0  0  0
   -2.0656   30.3798    5.3993 C   0  0  0  0  0  0
  1  2  2  0  0  0
  2  3  2  0  0  0
  2  4  1  0  0  0
  4  5  1  0  0  0
  5  6  1  0  0  0
  6  7  2  0  0  0
  7  8  1  0  0  0
  8  9  2  0  0  0
  9 10  1  0  0  0
 10 11  2  0  0  0
  2 12  1  0  0  0
 12 13  2  0  0  0
 13 14  1  0  0  0
 14 15  2  0  0  0
 15 16  1  0  0  0
 16 17  1  0  0  0
 16 18  1  0  0  0
 16 19  1  0  0  0
 15 20  1  0  0  0
 20 21  2  0  0  0
 11  6  1  0  0  0
 21 12  1  0  0  0
M  END
>  <CHROM.0>
-59.88758699,69.57825019

>  <CHROM.1>
-82.15877896,113.61176921,-92.67788202,-95.37578409,-59.66385664,-1.66731845
28.29578160,4.26578669,1.64852273,-1.38827951,3.02042068

>  <Name>
1b32740e-1092-44f0-95ec-5ec2d623fdc4

>  <RI>
2.11694e+07

>  <Rbt.Current_Directory>
/data/work/jku/5V6S/work/40/8dba899c20c42488f2b1a17844994e

>  <Rbt.Executable>
rbdock ($Id: //depot/dev/client3/rdock/2013.1/src/exe/rbdock.cxx#4 $)

>  <Rbt.Library>
libRbt.so (2013.1, Build901 2013/11/27)

>  <Rbt.Parameter_File>
/rDock_2013.1_src/data/scripts/dock.prm

>  <Rbt.Receptor>
docking.prm

>  <SCORE>
-14.6779

>  <SCORE.INTER>
-11.7492

>  <SCORE.INTER.CONST>
1

>  <SCORE.INTER.POLAR>
0

>  <SCORE.INTER.REPUL>
0

>  <SCORE.INTER.ROT>
5

>  <SCORE.INTER.VDW>
-22.1492

>  <SCORE.INTER.norm>
-0.559485

>  <SCORE.INTRA>
-1.41711

>  <SCORE.INTRA.DIHEDRAL>
-2.26293

>  <SCORE.INTRA.DIHEDRAL.0>
5.12505

>  <SCORE.INTRA.POLAR>
0

>  <SCORE.INTRA.POLAR.0>
0

>  <SCORE.INTRA.REPUL>
0

>  <SCORE.INTRA.REPUL.0>
0

>  <SCORE.INTRA.VDW>
-0.285648

>  <SCORE.INTRA.VDW.0>
-1.78461

>  <SCORE.INTRA.norm>
-0.0674815

>  <SCORE.RESTR>
0

>  <SCORE.RESTR.CAVITY>
0

>  <SCORE.RESTR.norm>
0

>  <SCORE.SYSTEM>
-1.51157

>  <SCORE.SYSTEM.CONST>
0

>  <SCORE.SYSTEM.DIHEDRAL>
0.450954

>  <SCORE.SYSTEM.POLAR>
-0.503205

>  <SCORE.SYSTEM.VDW>
-0.0261506

>  <SCORE.SYSTEM.norm>
-0.0719795

>  <SCORE.heavy>
21

>  <SCORE.norm>
-0.698946

>  <enum_code>
M

>  <enum_smi>
O=S(=O)([N-]Cc1ccccc1)c1ccc(C(F)(F)F)cc1

>  <sha256>
129f8588a91260953442428c688d580e9654ccfc067ea20e8a76588bf01b96ac

>  <std_smi>
O=S(=O)(NCc1ccccc1)c1ccc(C(F)(F)F)cc1

>  <uuid>
1b32740e-1092-44f0-95ec-5ec2d623fdc4

$$$$
1b32740e-1092-44f0-95ec-5ec2d623fdc4
  rDOCK(R)          3D
libRbt.so/2013.1/901 2013/11/27
 21 22  0  0  0  0  0  0  0  0999 V2000
   -3.3635   27.0699    5.5443 O   0  0  0  0  0  0
   -1.9462   27.3970    5.6923 S   0  0  0  0  0  0
   -1.5268   27.6368    7.0719 O   0  0  0  0  0  0
   -0.9391   26.4951    4.8461 N   0  5  0  0  0  0
   -0.5732   25.2552    5.5224 C   0  0  0  0  0  0
   -1.1513   24.0993    4.7341 C   0  0  0  0  0  0
   -0.3299   23.3115    3.9169 C   0  0  0  0  0  0
   -0.8649   22.2476    3.1883 C   0  0  0  0  0  0
   -2.2281   21.9648    3.2647 C   0  0  0  0  0  0
   -3.0576   22.7497    4.0649 C   0  0  0  0  0  0
   -2.5224   23.8136    4.7933 C   0  0  0  0  0  0
   -1.8360   29.0686    4.9920 C   0  0  0  0  0  0
   -2.0709   30.1858    5.7924 C   0  0  0  0  0  0
   -1.9776   31.4598    5.2302 C   0  0  0  0  0  0
   -1.6523   31.6198    3.8711 C   0  0  0  0  0  0
   -1.5298   32.9965    3.2736 C   0  0  0  0  0  0
   -0.7120   33.8131    3.9966 F   0  0  0  0  0  0
   -1.0204   32.9942    2.0075 F   0  0  0  0  0  0
   -2.7210   33.6562    3.1836 F   0  0  0  0  0  0
   -1.4046   30.4791    3.0869 C   0  0  0  0  0  0
   -1.4972   29.2039    3.6448 C   0  0  0  0  0  0
  1  2  2  0  0  0
  2  3  2  0  0  0
  2  4  1  0  0  0
  4  5  1  0  0  0
  5  6  1  0  0  0
  6  7  2  0  0  0
  7  8  1  0  0  0
  8  9  2  0  0  0
  9 10  1  0  0  0
 10 11  2  0  0  0
  2 12  1  0  0  0
 12 13  2  0  0  0
 13 14  1  0  0  0
 14 15  2  0  0  0
 15 16  1  0  0  0
 16 17  1  0  0  0
 16 18  1  0  0  0
 16 19  1  0  0  0
 15 20  1  0  0  0
 20 21  2  0  0  0
 11  6  1  0  0  0
 21 12  1  0  0  0
M  END
>  <CHROM.0>
-59.88758699,-62.50604186

>  <CHROM.1>
-85.16973196,113.21401471,103.84868180,87.25324837,50.97042504,-1.68065537
28.21231848,4.41724126,1.62039042,-1.37040027,3.09972413

>  <Name>
1b32740e-1092-44f0-95ec-5ec2d623fdc4

>  <RI>
2.11694e+07

>  <Rbt.Current_Directory>
/data/work/jku/5V6S/work/40/8dba899c20c42488f2b1a17844994e

>  <Rbt.Executable>
rbdock ($Id: //depot/dev/client3/rdock/2013.1/src/exe/rbdock.cxx#4 $)

>  <Rbt.Library>
libRbt.so (2013.1, Build901 2013/11/27)

>  <Rbt.Parameter_File>
/rDock_2013.1_src/data/scripts/dock.prm

>  <Rbt.Receptor>
docking.prm

>  <SCORE>
-11.9425

>  <SCORE.INTER>
-11.6309

>  <SCORE.INTER.CONST>
1

>  <SCORE.INTER.POLAR>
0

>  <SCORE.INTER.REPUL>
0

>  <SCORE.INTER.ROT>
5

>  <SCORE.INTER.VDW>
-22.0309

>  <SCORE.INTER.norm>
-0.553854

>  <SCORE.INTRA>
-1.33294

>  <SCORE.INTRA.DIHEDRAL>
-2.12534

>  <SCORE.INTRA.DIHEDRAL.0>
5.12505

>  <SCORE.INTRA.POLAR>
0

>  <SCORE.INTRA.POLAR.0>
0

>  <SCORE.INTRA.REPUL>
0

>  <SCORE.INTRA.REPUL.0>
0

>  <SCORE.INTRA.VDW>
-0.270267

>  <SCORE.INTRA.VDW.0>
-1.78461

>  <SCORE.INTRA.norm>
-0.0634731

>  <SCORE.RESTR>
0

>  <SCORE.RESTR.CAVITY>
0

>  <SCORE.RESTR.norm>
0

>  <SCORE.SYSTEM>
1.0214

>  <SCORE.SYSTEM.CONST>
0

>  <SCORE.SYSTEM.DIHEDRAL>
0.0385786

>  <SCORE.SYSTEM.REPUL>
0.140484

>  <SCORE.SYSTEM.VDW>
0.29969

>  <SCORE.SYSTEM.norm>
0.048638

>  <SCORE.heavy>
21

>  <SCORE.norm>
-0.56869

>  <enum_code>
M

>  <enum_smi>
O=S(=O)([N-]Cc1ccccc1)c1ccc(C(F)(F)F)cc1

>  <sha256>
129f8588a91260953442428c688d580e9654ccfc067ea20e8a76588bf01b96ac

>  <std_smi>
O=S(=O)(NCc1ccccc1)c1ccc(C(F)(F)F)cc1

>  <uuid>
1b32740e-1092-44f0-95ec-5ec2d623fdc4

$$$$
a800d6c6-11dc-40e4-8609-bb73e6b537c4
  rDOCK(R)          3D
libRbt.so/2013.1/901 2013/11/27
 17 19  0  0  0  0  0  0  0  0999 V2000
   -7.9003   27.0466    4.1151 C   0  0  0  0  0  0
   -6.5250   26.6140    4.4715 C   0  0  0  0  0  0
   -6.0595   25.4385    4.0392 N   0  0  0  0  0  0
   -4.7931   25.3494    4.5358 N   0  0  0  0  0  0
   -3.8647   24.2931    4.3775 C   0  0  0  0  0  0
   -4.2255   23.1813    3.6347 O   0  0  0  0  0  0
   -2.6674   24.4065    4.9675 C   0  0  0  0  0  0
   -2.4065   25.6688    5.7151 C   0  0  0  0  0  0
   -3.2332   26.6499    5.8864 N   0  0  0  0  0  0
   -4.4593   26.4933    5.2883 C   0  0  0  0  0  0
   -5.5725   27.3030    5.2478 C   0  0  0  0  0  0
   -5.7105   28.5760    5.8694 C   0  0  0  0  0  0
   -5.8682   29.6172    6.3588 N   0  0  0  0  0  0
   -1.0160   25.6549    6.2708 C   0  0  0  0  0  0
   -0.3527   24.5819    5.4024 C   0  0  0  0  0  0
   -1.4433   23.5666    5.0423 C   0  0  0  0  0  0
   -5.1222   23.3018    3.2839 H   0  0  0  0  0  0
  1  2  1  0  0  0
  2  3  2  0  0  0
  3  4  1  0  0  0
  4  5  1  0  0  0
  5  6  1  0  0  0
  5  7  2  0  0  0
  7  8  1  0  0  0
  8  9  2  0  0  0
  9 10  1  0  0  0
 10 11  2  0  0  0
 11 12  1  0  0  0
 12 13  3  0  0  0
  8 14  1  0  0  0
 14 15  1  0  0  0
 15 16  1  0  0  0
 11  2  1  0  0  0
 10  4  1  0  0  0
 16  7  1  0  0  0
  6 17  1  0  0  0
M  END
>  <CHROM.0>
-59.88758699,68.96337528

>  <CHROM.1>
1.45910179,-4.13251221,25.85116809,5.04633419,2.63152695,-0.33174528,0.48375943

>  <Name>
a800d6c6-11dc-40e4-8609-bb73e6b537c4

>  <RI>
3.07213e+07

>  <Rbt.Current_Directory>
/data/work/jku/5V6S/work/40/8dba899c20c42488f2b1a17844994e

>  <Rbt.Executable>
rbdock ($Id: //depot/dev/client3/rdock/2013.1/src/exe/rbdock.cxx#4 $)

>  <Rbt.Library>
libRbt.so (2013.1, Build901 2013/11/27)

>  <Rbt.Parameter_File>
/rDock_2013.1_src/data/scripts/dock.prm

>  <Rbt.Receptor>
docking.prm

>  <SCORE>
-13.2756

>  <SCORE.INTER>
-11.3075

>  <SCORE.INTER.CONST>
1

>  <SCORE.INTER.POLAR>
0

>  <SCORE.INTER.REPUL>
0.018401

>  <SCORE.INTER.ROT>
0

>  <SCORE.INTER.VDW>
-16.7995

>  <SCORE.INTER.norm>
-0.70672

>  <SCORE.INTRA>
-0.454424

>  <SCORE.INTRA.DIHEDRAL>
0.000903729

>  <SCORE.INTRA.DIHEDRAL.0>
0.00118996

>  <SCORE.INTRA.POLAR>
-0.0584972

>  <SCORE.INTRA.POLAR.0>
0

>  <SCORE.INTRA.REPUL>
0

>  <SCORE.INTRA.REPUL.0>
0

>  <SCORE.INTRA.VDW>
-0.255985

>  <SCORE.INTRA.VDW.0>
0.125841

>  <SCORE.INTRA.norm>
-0.0284015

>  <SCORE.RESTR>
0

>  <SCORE.RESTR.CAVITY>
0

>  <SCORE.RESTR.norm>
0

>  <SCORE.SYSTEM>
-1.51366

>  <SCORE.SYSTEM.CONST>
0

>  <SCORE.SYSTEM.DIHEDRAL>
0.39688

>  <SCORE.SYSTEM.POLAR>
-0.502963

>  <SCORE.SYSTEM.VDW>
-0.00202074

>  <SCORE.SYSTEM.norm>
-0.0946034

>  <SCORE.heavy>
16

>  <SCORE.norm>
-0.829724

>  <enum_code>
B

>  <enum_smi>
Cc1nn2c(O)c3c(nc2c1C#N)CCC3

>  <sha256>
39e1b0cb6462242f67993cb5678037f9b85a03408faf08abbd395fb60bce143b

>  <std_smi>
Cc1nn2c(O)c3c(nc2c1C#N)CCC3

>  <uuid>
a800d6c6-11dc-40e4-8609-bb73e6b537c4

$$$$
a800d6c6-11dc-40e4-8609-bb73e6b537c4
  rDOCK(R)          3D
libRbt.so/2013.1/901 2013/11/27
 17 19  0  0  0  0  0  0  0  0999 V2000
   -2.6323   21.3804    3.8713 C   0  0  0  0  0  0
   -3.1301   22.7557    4.1293 C   0  0  0  0  0  0
   -4.4420   22.9828    4.2428 N   0  0  0  0  0  0
   -4.5559   24.3219    4.4707 N   0  0  0  0  0  0
   -5.7370   25.0796    4.6553 C   0  0  0  0  0  0
   -6.9645   24.4397    4.6119 O   0  0  0  0  0  0
   -5.6201   26.3989    4.8548 C   0  0  0  0  0  0
   -4.2359   26.9488    4.9020 C   0  0  0  0  0  0
   -3.1362   26.2881    4.7301 N   0  0  0  0  0  0
   -3.2910   24.9423    4.5054 C   0  0  0  0  0  0
   -2.3771   23.9363    4.2841 C   0  0  0  0  0  0
   -0.9622   24.0812    4.2295 C   0  0  0  0  0  0
    0.1956   24.1519    4.1765 N   0  0  0  0  0  0
   -4.2802   28.4201    5.1768 C   0  0  0  0  0  0
   -5.6851   28.5768    5.7660 C   0  0  0  0  0  0
   -6.5678   27.5188    5.0945 C   0  0  0  0  0  0
   -7.6120   24.9432    5.1302 H   0  0  0  0  0  0
  1  2  1  0  0  0
  2  3  2  0  0  0
  3  4  1  0  0  0
  4  5  1  0  0  0
  5  6  1  0  0  0
  5  7  2  0  0  0
  7  8  1  0  0  0
  8  9  2  0  0  0
  9 10  1  0  0  0
 10 11  2  0  0  0
 11 12  1  0  0  0
 12 13  3  0  0  0
  8 14  1  0  0  0
 14 15  1  0  0  0
 15 16  1  0  0  0
 11  2  1  0  0  0
 10  4  1  0  0  0
 16  7  1  0  0  0
  6 17  1  0  0  0
M  END
>  <CHROM.0>
-59.88758699,69.01698904

>  <CHROM.1>
154.28028924,-4.02530100,25.13139703,4.61188905,0.86067009,-0.05574328,-2.94702191

>  <Name>
a800d6c6-11dc-40e4-8609-bb73e6b537c4

>  <RI>
3.07213e+07

>  <Rbt.Current_Directory>
/data/work/jku/5V6S/work/40/8dba899c20c42488f2b1a17844994e

>  <Rbt.Executable>
rbdock ($Id: //depot/dev/client3/rdock/2013.1/src/exe/rbdock.cxx#4 $)

>  <Rbt.Library>
libRbt.so (2013.1, Build901 2013/11/27)

>  <Rbt.Parameter_File>
/rDock_2013.1_src/data/scripts/dock.prm

>  <Rbt.Receptor>
docking.prm

>  <SCORE>
-13.1124

>  <SCORE.INTER>
-11.9347

>  <SCORE.INTER.CONST>
1

>  <SCORE.INTER.POLAR>
-0.862484

>  <SCORE.INTER.REPUL>
0

>  <SCORE.INTER.ROT>
0

>  <SCORE.INTER.VDW>
-14.4023

>  <SCORE.INTER.norm>
-0.745919

>  <SCORE.INTRA>
0.335948

>  <SCORE.INTRA.DIHEDRAL>
0.922657

>  <SCORE.INTRA.DIHEDRAL.0>
0.00118996

>  <SCORE.INTRA.POLAR>
0

>  <SCORE.INTRA.POLAR.0>
0

>  <SCORE.INTRA.REPUL>
0

>  <SCORE.INTRA.REPUL.0>
0

>  <SCORE.INTRA.VDW>
-0.12538

>  <SCORE.INTRA.VDW.0>
0.125841

>  <SCORE.INTRA.norm>
0.0209968

>  <SCORE.RESTR>
0

>  <SCORE.RESTR.CAVITY>
0

>  <SCORE.RESTR.norm>
0

>  <SCORE.SYSTEM>
-1.51361

>  <SCORE.SYSTEM.CONST>
0

>  <SCORE.SYSTEM.DIHEDRAL>
0.401463

>  <SCORE.SYSTEM.POLAR>
-0.502996

>  <SCORE.SYSTEM.VDW>
-0.00415884

>  <SCORE.SYSTEM.norm>
-0.0946009

>  <SCORE.heavy>
16

>  <SCORE.norm>
-0.819523

>  <enum_code>
B

>  <enum_smi>
Cc1nn2c(O)c3c(nc2c1C#N)CCC3

>  <sha256>
39e1b0cb6462242f67993cb5678037f9b85a03408faf08abbd395fb60bce143b

>  <std_smi>
Cc1nn2c(O)c3c(nc2c1C#N)CCC3

>  <uuid>
a800d6c6-11dc-40e4-8609-bb73e6b537c4

$$$$
a800d6c6-11dc-40e4-8609-bb73e6b537c4
  rDOCK(R)          3D
libRbt.so/2013.1/901 2013/11/27
 17 19  0  0  0  0  0  0  0  0999 V2000
   -2.6040   21.1951    4.0475 C   0  0  0  0  0  0
   -3.4838   22.3911    4.0801 C   0  0  0  0  0  0
   -4.6058   22.4172    3.3549 N   0  0  0  0  0  0
   -5.1669   23.6340    3.6055 N   0  0  0  0  0  0
   -6.3660   24.1688    3.0772 C   0  0  0  0  0  0
   -7.1110   23.4107    2.1894 O   0  0  0  0  0  0
   -6.7297   25.4025    3.4511 C   0  0  0  0  0  0
   -5.8451   26.0928    4.4318 C   0  0  0  0  0  0
   -4.7399   25.6378    4.9287 N   0  0  0  0  0  0
   -4.3832   24.3802    4.5084 C   0  0  0  0  0  0
   -3.3024   23.5821    4.8104 C   0  0  0  0  0  0
   -2.2314   23.9122    5.6878 C   0  0  0  0  0  0
   -1.3379   24.1382    6.3942 N   0  0  0  0  0  0
   -6.4147   27.4339    4.7774 C   0  0  0  0  0  0
   -7.8747   27.2636    4.3473 C   0  0  0  0  0  0
   -7.8759   26.3012    3.1542 C   0  0  0  0  0  0
   -7.9632   23.8452    2.0264 H   0  0  0  0  0  0
  1  2  1  0  0  0
  2  3  2  0  0  0
  3  4  1  0  0  0
  4  5  1  0  0  0
  5  6  1  0  0  0
  5  7  2  0  0  0
  7  8  1  0  0  0
  8  9  2  0  0  0
  9 10  1  0  0  0
 10 11  2  0  0  0
 11 12  1  0  0  0
 12 13  3  0  0  0
  8 14  1  0  0  0
 14 15  1  0  0  0
 15 16  1  0  0  0
 11  2  1  0  0  0
 10  4  1  0  0  0
 16  7  1  0  0  0
  6 17  1  0  0  0
M  END
>  <CHROM.0>
-59.88758699,68.89320670

>  <CHROM.1>
171.12426417,-5.05225745,24.44449376,4.14112479,0.42789356,0.52007281,-2.63604120

>  <Name>
a800d6c6-11dc-40e4-8609-bb73e6b537c4

>  <RI>
3.07213e+07

>  <Rbt.Current_Directory>
/data/work/jku/5V6S/work/40/8dba899c20c42488f2b1a17844994e

>  <Rbt.Executable>
rbdock ($Id: //depot/dev/client3/rdock/2013.1/src/exe/rbdock.cxx#4 $)

>  <Rbt.Library>
libRbt.so (2013.1, Build901 2013/11/27)

>  <Rbt.Parameter_File>
/rDock_2013.1_src/data/scripts/dock.prm

>  <Rbt.Receptor>
docking.prm

>  <SCORE>
-14.8398

>  <SCORE.INTER>
-13.3671

>  <SCORE.INTER.CONST>
1

>  <SCORE.INTER.POLAR>
-1.03078

>  <SCORE.INTER.REPUL>
0

>  <SCORE.INTER.ROT>
0

>  <SCORE.INTER.VDW>
-15.2625

>  <SCORE.INTER.norm>
-0.835444

>  <SCORE.INTRA>
0.040988

>  <SCORE.INTRA.DIHEDRAL>
0.121013

>  <SCORE.INTRA.DIHEDRAL.0>
0.00118996

>  <SCORE.INTRA.POLAR>
0

>  <SCORE.INTRA.POLAR.0>
0

>  <SCORE.INTRA.REPUL>
0

>  <SCORE.INTRA.REPUL.0>
0

>  <SCORE.INTRA.VDW>
-0.0195185

>  <SCORE.INTRA.VDW.0>
0.125841

>  <SCORE.INTRA.norm>
0.00256175

>  <SCORE.RESTR>
0

>  <SCORE.RESTR.CAVITY>
0

>  <SCORE.RESTR.norm>
0

>  <SCORE.SYSTEM>
-1.51367

>  <SCORE.SYSTEM.CONST>
0

>  <SCORE.SYSTEM.DIHEDRAL>
0.390919

>  <SCORE.SYSTEM.POLAR>
-0.502916

>  <SCORE.SYSTEM.VDW>
0.000787493

>  <SCORE.SYSTEM.norm>
-0.0946042

>  <SCORE.heavy>
16

>  <SCORE.norm>
-0.927486

>  <enum_code>
B

>  <enum_smi>
Cc1nn2c(O)c3c(nc2c1C#N)CCC3

>  <sha256>
39e1b0cb6462242f67993cb5678037f9b85a03408faf08abbd395fb60bce143b

>  <std_smi>
Cc1nn2c(O)c3c(nc2c1C#N)CCC3

>  <uuid>
a800d6c6-11dc-40e4-8609-bb73e6b537c4

$$$$
a800d6c6-11dc-40e4-8609-bb73e6b537c4
  rDOCK(R)          3D
libRbt.so/2013.1/901 2013/11/27
 17 19  0  0  0  0  0  0  0  0999 V2000
    0.1016   32.5348    0.0778 C   0  0  0  0  0  0
   -0.5560   31.6127    1.0385 C   0  0  0  0  0  0
   -0.1858   30.3302    1.0964 N   0  0  0  0  0  0
   -0.9717   29.7729    2.0608 N   0  0  0  0  0  0
   -0.9868   28.4302    2.5079 C   0  0  0  0  0  0
   -0.1170   27.5172    1.9354 O   0  0  0  0  0  0
   -1.8575   28.0904    3.4674 C   0  0  0  0  0  0
   -2.7158   29.1814    4.0093 C   0  0  0  0  0  0
   -2.7340   30.4155    3.6196 N   0  0  0  0  0  0
   -1.8460   30.7267    2.6196 C   0  0  0  0  0  0
   -1.5795   31.9064    1.9611 C   0  0  0  0  0  0
   -2.2186   33.1583    2.1849 C   0  0  0  0  0  0
   -2.7120   34.1990    2.3329 N   0  0  0  0  0  0
   -3.5935   28.6470    5.0986 C   0  0  0  0  0  0
   -2.8554   27.3604    5.4796 C   0  0  0  0  0  0
   -2.1828   26.8409    4.2039 C   0  0  0  0  0  0
    0.2407   27.8821    1.1106 H   0  0  0  0  0  0
  1  2  1  0  0  0
  2  3  2  0  0  0
  3  4  1  0  0  0
  4  5  1  0  0  0
  5  6  1  0  0  0
  5  7  2  0  0  0
  7  8  1  0  0  0
  8  9  2  0  0  0
  9 10  1  0  0  0
 10 11  2  0  0  0
 11 12  1  0  0  0
 12 13  3  0  0  0
  8 14  1  0  0  0
 14 15  1  0  0  0
 15 16  1  0  0  0
 11  2  1  0  0  0
 10  4  1  0  0  0
 16  7  1  0  0  0
  6 17  1  0  0  0
M  END
>  <CHROM.0>
-59.88758699,69.04947852

>  <CHROM.1>
-15.37694925,-1.65676271,29.99684916,2.71608267,-1.29253928,-0.78505051,2.80202477

>  <Name>
a800d6c6-11dc-40e4-8609-bb73e6b537c4

>  <RI>
3.07213e+07

>  <Rbt.Current_Directory>
/data/work/jku/5V6S/work/40/8dba899c20c42488f2b1a17844994e

>  <Rbt.Executable>
rbdock ($Id: //depot/dev/client3/rdock/2013.1/src/exe/rbdock.cxx#4 $)

>  <Rbt.Library>
libRbt.so (2013.1, Build901 2013/11/27)

>  <Rbt.Parameter_File>
/rDock_2013.1_src/data/scripts/dock.prm

>  <Rbt.Receptor>
docking.prm

>  <SCORE>
-13.2794

>  <SCORE.INTER>
-11.5696

>  <SCORE.INTER.CONST>
1

>  <SCORE.INTER.POLAR>
-0.350497

>  <SCORE.INTER.REPUL>
0.0102772

>  <SCORE.INTER.ROT>
0

>  <SCORE.INTER.VDW>
-15.8292

>  <SCORE.INTER.norm>
-0.723097

>  <SCORE.INTRA>
-0.196261

>  <SCORE.INTRA.DIHEDRAL>
0.34943

>  <SCORE.INTRA.DIHEDRAL.0>
0.00118996

>  <SCORE.INTRA.POLAR>
-0.0303997

>  <SCORE.INTRA.POLAR.0>
0

>  <SCORE.INTRA.REPUL>
0

>  <SCORE.INTRA.REPUL.0>
0

>  <SCORE.INTRA.VDW>
-0.267617

>  <SCORE.INTRA.VDW.0>
0.125841

>  <SCORE.INTRA.norm>
-0.0122663

>  <SCORE.RESTR>
0

>  <SCORE.RESTR.CAVITY>
0

>  <SCORE.RESTR.norm>
0

>  <SCORE.SYSTEM>
-1.51358

>  <SCORE.SYSTEM.CONST>
0

>  <SCORE.SYSTEM.DIHEDRAL>
0.404253

>  <SCORE.SYSTEM.POLAR>
-0.503015

>  <SCORE.SYSTEM.VDW>
-0.00545131

>  <SCORE.SYSTEM.norm>
-0.0945985

>  <SCORE.heavy>
16

>  <SCORE.norm>
-0.829962

>  <enum_code>
B

>  <enum_smi>
Cc1nn2c(O)c3c(nc2c1C#N)CCC3

>  <sha256>
39e1b0cb6462242f67993cb5678037f9b85a03408faf08abbd395fb60bce143b

>  <std_smi>
Cc1nn2c(O)c3c(nc2c1C#N)CCC3

>  <uuid>
a800d6c6-11dc-40e4-8609-bb73e6b537c4

$$$$
a800d6c6-11dc-40e4-8609-bb73e6b537c4
  rDOCK(R)          3D
libRbt.so/2013.1/901 2013/11/27
 17 19  0  0  0  0  0  0  0  0999 V2000
   -7.9182   27.1514    4.1458 C   0  0  0  0  0  0
   -6.5510   26.7001    4.5103 C   0  0  0  0  0  0
   -6.0913   25.5277    4.0634 N   0  0  0  0  0  0
   -4.8316   25.4185    4.5728 N   0  0  0  0  0  0
   -3.9110   24.3564    4.4071 C   0  0  0  0  0  0
   -4.2734   23.2608    3.6414 O   0  0  0  0  0  0
   -2.7197   24.4487    5.0124 C   0  0  0  0  0  0
   -2.4559   25.6958    5.7843 C   0  0  0  0  0  0
   -3.2755   26.6815    5.9628 N   0  0  0  0  0  0
   -4.4961   26.5464    5.3484 C   0  0  0  0  0  0
   -5.6013   27.3670    5.3091 C   0  0  0  0  0  0
   -5.7349   28.6305    5.9505 C   0  0  0  0  0  0
   -5.8887   29.6647    6.4557 N   0  0  0  0  0  0
   -1.0721   25.6596    6.3554 C   0  0  0  0  0  0
   -0.4086   24.5953    5.4764 C   0  0  0  0  0  0
   -1.5042   23.5964    5.0869 C   0  0  0  0  0  0
   -3.5107   22.6701    3.5377 H   0  0  0  0  0  0
  1  2  1  0  0  0
  2  3  2  0  0  0
  3  4  1  0  0  0
  4  5  1  0  0  0
  5  6  1  0  0  0
  5  7  2  0  0  0
  7  8  1  0  0  0
  8  9  2  0  0  0
  9 10  1  0  0  0
 10 11  2  0  0  0
 11 12  1  0  0  0
 12 13  3  0  0  0
  8 14  1  0  0  0
 14 15  1  0  0  0
 15 16  1  0  0  0
 11  2  1  0  0  0
 10  4  1  0  0  0
 16  7  1  0  0  0
  6 17  1  0  0  0
M  END
>  <CHROM.0>
-59.88758699,68.74059681

>  <CHROM.1>
173.58963634,-4.16458921,25.90201421,5.10042341,2.62252429,-0.34612482,0.49990417

>  <Name>
a800d6c6-11dc-40e4-8609-bb73e6b537c4

>  <RI>
3.07213e+07

>  <Rbt.Current_Directory>
/data/work/jku/5V6S/work/40/8dba899c20c42488f2b1a17844994e

>  <Rbt.Executable>
rbdock ($Id: //depot/dev/client3/rdock/2013.1/src/exe/rbdock.cxx#4 $)

>  <Rbt.Library>
libRbt.so (2013.1, Build901 2013/11/27)

>  <Rbt.Parameter_File>
/rDock_2013.1_src/data/scripts/dock.prm

>  <Rbt.Receptor>
docking.prm

>  <SCORE>
-12.8017

>  <SCORE.INTER>
-11.3098

>  <SCORE.INTER.CONST>
1

>  <SCORE.INTER.POLAR>
0

>  <SCORE.INTER.REPUL>
0.0167001

>  <SCORE.INTER.ROT>
0

>  <SCORE.INTER.VDW>
-16.7933

>  <SCORE.INTER.norm>
-0.70686

>  <SCORE.INTRA>
0.0215665

>  <SCORE.INTRA.DIHEDRAL>
0.0644932

>  <SCORE.INTRA.DIHEDRAL.0>
0.00118996

>  <SCORE.INTRA.POLAR>
0

>  <SCORE.INTRA.POLAR.0>
0

>  <SCORE.INTRA.REPUL>
0

>  <SCORE.INTRA.REPUL.0>
0

>  <SCORE.INTRA.VDW>
-0.0106801

>  <SCORE.INTRA.VDW.0>
0.125841

>  <SCORE.INTRA.norm>
0.0013479

>  <SCORE.RESTR>
0

>  <SCORE.RESTR.CAVITY>
0

>  <SCORE.RESTR.norm>
0

>  <SCORE.SYSTEM>
-1.51353

>  <SCORE.SYSTEM.CONST>
0

>  <SCORE.SYSTEM.DIHEDRAL>
0.378106

>  <SCORE.SYSTEM.POLAR>
-0.5028

>  <SCORE.SYSTEM.VDW>
0.00693414

>  <SCORE.SYSTEM.norm>
-0.0945958

>  <SCORE.heavy>
16

>  <SCORE.norm>
-0.800108

>  <enum_code>
B

>  <enum_smi>
Cc1nn2c(O)c3c(nc2c1C#N)CCC3

>  <sha256>
39e1b0cb6462242f67993cb5678037f9b85a03408faf08abbd395fb60bce143b

>  <std_smi>
Cc1nn2c(O)c3c(nc2c1C#N)CCC3

>  <uuid>
a800d6c6-11dc-40e4-8609-bb73e6b537c4

$$$$
acaf5895-8334-450a-8ad6-82767e7dbeb8
  rDOCK(R)          3D
libRbt.so/2013.1/901 2013/11/27
 18 20  0  0  0  0  0  0  0  0999 V2000
    0.1908   32.4884   -0.2683 C   0  0  0  0  0  0
   -0.1394   31.6999    0.7629 C   0  0  0  0  0  0
   -0.0226   30.3212    0.7897 N   0  0  0  0  0  0
   -0.6629   29.7981    1.8636 N   0  0  0  0  0  0
   -0.8234   28.4833    2.2457 C   0  0  0  0  0  0
   -0.4012   27.4942    1.3902 O   0  0  0  0  0  0
   -1.3979   28.2557    3.4383 C   0  0  0  0  0  0
   -1.8111   29.3730    4.2715 C   0  0  0  0  0  0
   -1.6290   30.6779    3.8899 N   0  0  0  0  0  0
   -1.0772   30.8215    2.7148 C   0  0  0  0  0  0
   -0.7637   32.1786    2.0929 C   0  0  0  0  0  0
   -1.9883   32.9529    1.8856 C   0  0  0  0  0  0
   -2.9360   33.5994    1.6976 N   0  0  0  0  0  0
   -2.3619   28.9430    5.4052 C   0  0  0  0  0  0
   -2.3883   27.4494    5.4731 C   0  0  0  0  0  0
   -1.7349   26.9878    4.1588 C   0  0  0  0  0  0
   -0.1205   29.8283   -0.0968 H   0  0  0  0  0  0
    0.0234   27.9210    0.6287 H   0  0  0  0  0  0
  1  2  2  0  0  0
  2  3  1  0  0  0
  3  4  1  0  0  0
  4  5  1  0  0  0
  5  6  1  0  0  0
  5  7  2  0  0  0
  7  8  1  0  0  0
  8  9  1  0  0  0
  9 10  2  0  0  0
 10 11  1  0  0  0
 11 12  1  0  0  0
 12 13  3  0  0  0
  8 14  2  0  0  0
 14 15  1  0  0  0
 15 16  1  0  0  0
 11  2  1  0  0  0
 10  4  1  0  0  0
 16  7  1  0  0  0
  3 17  1  0  0  0
  6 18  1  0  0  0
M  END
>  <CHROM.0>
-59.88758699,68.73911639

>  <CHROM.1>
3.90743610,-1.22690676,30.04552989,2.57278229,-1.30013883,-0.97518991,2.73644351

>  <Name>
acaf5895-8334-450a-8ad6-82767e7dbeb8

>  <RI>
1.96211e+07

>  <Rbt.Current_Directory>
/data/work/jku/5V6S/work/40/8dba899c20c42488f2b1a17844994e

>  <Rbt.Executable>
rbdock ($Id: //depot/dev/client3/rdock/2013.1/src/exe/rbdock.cxx#4 $)

>  <Rbt.Library>
libRbt.so (2013.1, Build901 2013/11/27)

>  <Rbt.Parameter_File>
/rDock_2013.1_src/data/scripts/dock.prm

>  <Rbt.Receptor>
docking.prm

>  <SCORE>
-18.0335

>  <SCORE.INTER>
-16.0726

>  <SCORE.INTER.CONST>
1

>  <SCORE.INTER.POLAR>
-0.935414

>  <SCORE.INTER.REPUL>
9.21974e-05

>  <SCORE.INTER.ROT>
0

>  <SCORE.INTER.VDW>
-18.2926

>  <SCORE.INTER.norm>
-1.00454

>  <SCORE.INTRA>
-0.447358

>  <SCORE.INTRA.DIHEDRAL>
0.0135683

>  <SCORE.INTRA.DIHEDRAL.0>
0.00585311

>  <SCORE.INTRA.POLAR>
-0.0862044

>  <SCORE.INTRA.POLAR.0>
0

>  <SCORE.INTRA.REPUL>
0

>  <SCORE.INTRA.REPUL.0>
0

>  <SCORE.INTRA.VDW>
-0.161048

>  <SCORE.INTRA.VDW.0>
0.178653

>  <SCORE.INTRA.norm>
-0.0279599

>  <SCORE.RESTR>
0

>  <SCORE.RESTR.CAVITY>
0

>  <SCORE.RESTR.norm>
0

>  <SCORE.SYSTEM>
-1.51353

>  <SCORE.SYSTEM.CONST>
0

>  <SCORE.SYSTEM.DIHEDRAL>
0.377983

>  <SCORE.SYSTEM.POLAR>
-0.502799

>  <SCORE.SYSTEM.VDW>
0.00699402

>  <SCORE.SYSTEM.norm>
-0.0945957

>  <SCORE.heavy>
16

>  <SCORE.norm>
-1.12709

>  <enum_code>
T

>  <enum_smi>
C=C1NN2C(=NC3=CCCC3=C2O)C1C#N

>  <sha256>
39e1b0cb6462242f67993cb5678037f9b85a03408faf08abbd395fb60bce143b

>  <std_smi>
Cc1nn2c(O)c3c(nc2c1C#N)CCC3

>  <uuid>
acaf5895-8334-450a-8ad6-82767e7dbeb8

$$$$
acaf5895-8334-450a-8ad6-82767e7dbeb8
  rDOCK(R)          3D
libRbt.so/2013.1/901 2013/11/27
 18 20  0  0  0  0  0  0  0  0999 V2000
    0.2200   32.4689   -0.2967 C   0  0  0  0  0  0
   -0.1207   31.6877    0.7366 C   0  0  0  0  0  0
   -0.0144   30.3083    0.7703 N   0  0  0  0  0  0
   -0.6634   29.7950    1.8437 N   0  0  0  0  0  0
   -0.8355   28.4832    2.2311 C   0  0  0  0  0  0
   -0.4170   27.4871    1.3820 O   0  0  0  0  0  0
   -1.4169   28.2655    3.4222 C   0  0  0  0  0  0
   -1.8253   29.3898    4.2484 C   0  0  0  0  0  0
   -1.6317   30.6915    3.8616 N   0  0  0  0  0  0
   -1.0737   30.8255    2.6883 C   0  0  0  0  0  0
   -0.7472   32.1772    2.0616 C   0  0  0  0  0  0
   -1.9650   32.9598    1.8454 C   0  0  0  0  0  0
   -2.9069   33.6125    1.6501 N   0  0  0  0  0  0
   -2.3843   28.9692    5.3816 C   0  0  0  0  0  0
   -2.4223   27.4761    5.4562 C   0  0  0  0  0  0
   -1.7667   27.0036    4.1470 C   0  0  0  0  0  0
   -0.1122   29.8120   -0.1144 H   0  0  0  0  0  0
    0.0333   27.9061    0.6310 H   0  0  0  0  0  0
  1  2  2  0  0  0
  2  3  1  0  0  0
  3  4  1  0  0  0
  4  5  1  0  0  0
  5  6  1  0  0  0
  5  7  2  0  0  0
  7  8  1  0  0  0
  8  9  1  0  0  0
  9 10  2  0  0  0
 10 11  1  0  0  0
 11 12  1  0  0  0
 12 13  3  0  0  0
  8 14  2  0  0  0
 14 15  1  0  0  0
 15 16  1  0  0  0
 11  2  1  0  0  0
 10  4  1  0  0  0
 16  7  1  0  0  0
  3 17  1  0  0  0
  6 18  1  0  0  0
M  END
>  <CHROM.0>
-59.88758699,68.27626195

>  <CHROM.1>
5.26702456,-1.22851926,30.04997981,2.54925817,-1.28477453,-0.97393521,2.74453968

>  <Name>
acaf5895-8334-450a-8ad6-82767e7dbeb8

>  <RI>
1.96211e+07

>  <Rbt.Current_Directory>
/data/work/jku/5V6S/work/40/8dba899c20c42488f2b1a17844994e

>  <Rbt.Executable>
rbdock ($Id: //depot/dev/client3/rdock/2013.1/src/exe/rbdock.cxx#4 $)

>  <Rbt.Library>
libRbt.so (2013.1, Build901 2013/11/27)

>  <Rbt.Parameter_File>
/rDock_2013.1_src/data/scripts/dock.prm

>  <Rbt.Receptor>
docking.prm

>  <SCORE>
-18.0436

>  <SCORE.INTER>
-16.0848

>  <SCORE.INTER.CONST>
1

>  <SCORE.INTER.POLAR>
-0.935133

>  <SCORE.INTER.REPUL>
0

>  <SCORE.INTER.ROT>
0

>  <SCORE.INTER.VDW>
-18.3053

>  <SCORE.INTER.norm>
-1.0053

>  <SCORE.INTRA>
-0.447036

>  <SCORE.INTRA.DIHEDRAL>
0.0306642

>  <SCORE.INTRA.DIHEDRAL.0>
0.00585311

>  <SCORE.INTRA.POLAR>
-0.0864886

>  <SCORE.INTRA.POLAR.0>
0

>  <SCORE.INTRA.REPUL>
0

>  <SCORE.INTRA.REPUL.0>
0

>  <SCORE.INTRA.VDW>
-0.168307

>  <SCORE.INTRA.VDW.0>
0.178653

>  <SCORE.INTRA.norm>
-0.0279398

>  <SCORE.RESTR>
0

>  <SCORE.RESTR.CAVITY>
0

>  <SCORE.RESTR.norm>
0

>  <SCORE.SYSTEM>
-1.51176

>  <SCORE.SYSTEM.CONST>
0

>  <SCORE.SYSTEM.DIHEDRAL>
0.340391

>  <SCORE.SYSTEM.POLAR>
-0.50233

>  <SCORE.SYSTEM.VDW>
0.0259677

>  <SCORE.SYSTEM.norm>
-0.094485

>  <SCORE.heavy>
16

>  <SCORE.norm>
-1.12772

>  <enum_code>
T

>  <enum_smi>
C=C1NN2C(=NC3=CCCC3=C2O)C1C#N

>  <sha256>
39e1b0cb6462242f67993cb5678037f9b85a03408faf08abbd395fb60bce143b

>  <std_smi>
Cc1nn2c(O)c3c(nc2c1C#N)CCC3

>  <uuid>
acaf5895-8334-450a-8ad6-82767e7dbeb8

$$$$
acaf5895-8334-450a-8ad6-82767e7dbeb8
  rDOCK(R)          3D
libRbt.so/2013.1/901 2013/11/27
 18 20  0  0  0  0  0  0  0  0999 V2000
    0.0049   24.5583    4.4240 C   0  0  0  0  0  0
   -1.2964   24.8707    4.4794 C   0  0  0  0  0  0
   -2.3435   23.9714    4.3795 N   0  0  0  0  0  0
   -3.5260   24.6149    4.2233 N   0  0  0  0  0  0
   -4.7957   24.1061    4.0512 C   0  0  0  0  0  0
   -4.9426   22.7505    3.8796 O   0  0  0  0  0  0
   -5.8141   24.9818    4.0526 C   0  0  0  0  0  0
   -5.5538   26.3995    4.2419 C   0  0  0  0  0  0
   -4.2880   26.8929    4.4316 N   0  0  0  0  0  0
   -3.3487   25.9856    4.4051 C   0  0  0  0  0  0
   -1.8701   26.2996    4.6093 C   0  0  0  0  0  0
   -1.3772   27.1944    3.5613 C   0  0  0  0  0  0
   -0.9425   27.8988    2.7450 N   0  0  0  0  0  0
   -6.6858   27.1001    4.2059 C   0  0  0  0  0  0
   -7.8725   26.2184    3.9811 C   0  0  0  0  0  0
   -7.2901   24.7974    3.8863 C   0  0  0  0  0  0
   -2.1888   23.1374    3.8147 H   0  0  0  0  0  0
   -5.8928   22.5582    3.8304 H   0  0  0  0  0  0
  1  2  2  0  0  0
  2  3  1  0  0  0
  3  4  1  0  0  0
  4  5  1  0  0  0
  5  6  1  0  0  0
  5  7  2  0  0  0
  7  8  1  0  0  0
  8  9  1  0  0  0
  9 10  2  0  0  0
 10 11  1  0  0  0
 11 12  1  0  0  0
 12 13  3  0  0  0
  8 14  2  0  0  0
 14 15  1  0  0  0
 15 16  1  0  0  0
 11  2  1  0  0  0
 10  4  1  0  0  0
 16  7  1  0  0  0
  3 17  1  0  0  0
  6 18  1  0  0  0
M  END
>  <CHROM.0>
-59.88758699,69.27640966

>  <CHROM.1>
176.46699901,-3.88923728,25.47517117,4.08790819,-0.06771391,-0.00151784,3.03916412

>  <Name>
acaf5895-8334-450a-8ad6-82767e7dbeb8

>  <RI>
1.96211e+07

>  <Rbt.Current_Directory>
/data/work/jku/5V6S/work/40/8dba899c20c42488f2b1a17844994e

>  <Rbt.Executable>
rbdock ($Id: //depot/dev/client3/rdock/2013.1/src/exe/rbdock.cxx#4 $)

>  <Rbt.Library>
libRbt.so (2013.1, Build901 2013/11/27)

>  <Rbt.Parameter_File>
/rDock_2013.1_src/data/scripts/dock.prm

>  <Rbt.Receptor>
docking.prm

>  <SCORE>
-12.0553

>  <SCORE.INTER>
-10.5466

>  <SCORE.INTER.CONST>
1

>  <SCORE.INTER.POLAR>
0

>  <SCORE.INTER.REPUL>
0

>  <SCORE.INTER.ROT>
0

>  <SCORE.INTER.VDW>
-15.9466

>  <SCORE.INTER.norm>
-0.659162

>  <SCORE.INTRA>
0.00435753

>  <SCORE.INTRA.DIHEDRAL>
0.0153735

>  <SCORE.INTRA.DIHEDRAL.0>
0.00585311

>  <SCORE.INTRA.POLAR>
0

>  <SCORE.INTRA.POLAR.0>
0

>  <SCORE.INTRA.REPUL>
0

>  <SCORE.INTRA.REPUL.0>
0

>  <SCORE.INTRA.VDW>
-0.00332923

>  <SCORE.INTRA.VDW.0>
0.178653

>  <SCORE.INTRA.norm>
0.000272346

>  <SCORE.RESTR>
0

>  <SCORE.RESTR.CAVITY>
0

>  <SCORE.RESTR.norm>
0

>  <SCORE.SYSTEM>
-1.51304

>  <SCORE.SYSTEM.CONST>
0

>  <SCORE.SYSTEM.DIHEDRAL>
0.423997

>  <SCORE.SYSTEM.POLAR>
-0.503124

>  <SCORE.SYSTEM.VDW>
-0.014412

>  <SCORE.SYSTEM.norm>
-0.0945647

>  <SCORE.heavy>
16

>  <SCORE.norm>
-0.753454

>  <enum_code>
T

>  <enum_smi>
C=C1NN2C(=NC3=CCCC3=C2O)C1C#N

>  <sha256>
39e1b0cb6462242f67993cb5678037f9b85a03408faf08abbd395fb60bce143b

>  <std_smi>
Cc1nn2c(O)c3c(nc2c1C#N)CCC3

>  <uuid>
acaf5895-8334-450a-8ad6-82767e7dbeb8

$$$$
acaf5895-8334-450a-8ad6-82767e7dbeb8
  rDOCK(R)          3D
libRbt.so/2013.1/901 2013/11/27
 18 20  0  0  0  0  0  0  0  0999 V2000
    0.2570   25.3442    6.2207 C   0  0  0  0  0  0
   -1.0337   25.1669    5.9097 C   0  0  0  0  0  0
   -1.5378   24.1452    5.1240 N   0  0  0  0  0  0
   -2.8311   24.3778    4.7920 N   0  0  0  0  0  0
   -3.6895   23.6419    4.0032 C   0  0  0  0  0  0
   -3.1886   22.5610    3.3182 O   0  0  0  0  0  0
   -4.9704   24.0427    3.9493 C   0  0  0  0  0  0
   -5.4023   25.2019    4.7127 C   0  0  0  0  0  0
   -4.5438   25.9155    5.5098 N   0  0  0  0  0  0
   -3.3139   25.4759    5.5023 C   0  0  0  0  0  0
   -2.1920   26.1016    6.3247 C   0  0  0  0  0  0
   -1.9596   27.4888    5.9198 C   0  0  0  0  0  0
   -1.7374   28.5912    5.6253 N   0  0  0  0  0  0
   -6.6988   25.4405    4.5229 C   0  0  0  0  0  0
   -7.3101   24.4486    3.5854 C   0  0  0  0  0  0
   -6.1541   23.5064    3.2068 C   0  0  0  0  0  0
   -0.9293   23.7744    4.3956 H   0  0  0  0  0  0
   -3.9060   22.1930    2.7777 H   0  0  0  0  0  0
  1  2  2  0  0  0
  2  3  1  0  0  0
  3  4  1  0  0  0
  4  5  1  0  0  0
  5  6  1  0  0  0
  5  7  2  0  0  0
  7  8  1  0  0  0
  8  9  1  0  0  0
  9 10  2  0  0  0
 10 11  1  0  0  0
 11 12  1  0  0  0
 12 13  3  0  0  0
  8 14  2  0  0  0
 14 15  1  0  0  0
 15 16  1  0  0  0
 11  2  1  0  0  0
 10  4  1  0  0  0
 16  7  1  0  0  0
  3 17  1  0  0  0
  6 18  1  0  0  0
M  END
>  <CHROM.0>
-59.88758699,69.30389534

>  <CHROM.1>
-176.69317560,-3.50435225,25.03638841,4.85105232,-0.51372126,0.23008581,-2.73326950

>  <Name>
acaf5895-8334-450a-8ad6-82767e7dbeb8

>  <RI>
1.96211e+07

>  <Rbt.Current_Directory>
/data/work/jku/5V6S/work/40/8dba899c20c42488f2b1a17844994e

>  <Rbt.Executable>
rbdock ($Id: //depot/dev/client3/rdock/2013.1/src/exe/rbdock.cxx#4 $)

>  <Rbt.Library>
libRbt.so (2013.1, Build901 2013/11/27)

>  <Rbt.Parameter_File>
/rDock_2013.1_src/data/scripts/dock.prm

>  <Rbt.Receptor>
docking.prm

>  <SCORE>
-11.5411

>  <SCORE.INTER>
-10.0312

>  <SCORE.INTER.CONST>
1

>  <SCORE.INTER.POLAR>
0

>  <SCORE.INTER.REPUL>
0

>  <SCORE.INTER.ROT>
0

>  <SCORE.INTER.VDW>
-15.4312

>  <SCORE.INTER.norm>
-0.62695

>  <SCORE.INTRA>
0.00308299

>  <SCORE.INTRA.DIHEDRAL>
0.00772137

>  <SCORE.INTRA.DIHEDRAL.0>
0.00585311

>  <SCORE.INTRA.POLAR>
0

>  <SCORE.INTRA.POLAR.0>
0

>  <SCORE.INTRA.REPUL>
0

>  <SCORE.INTRA.REPUL.0>
0

>  <SCORE.INTRA.VDW>
-0.00077769

>  <SCORE.INTRA.VDW.0>
0.178653

>  <SCORE.INTRA.norm>
0.000192687

>  <SCORE.RESTR>
0

>  <SCORE.RESTR.CAVITY>
0

>  <SCORE.RESTR.norm>
0

>  <SCORE.SYSTEM>
-1.51294

>  <SCORE.SYSTEM.CONST>
0

>  <SCORE.SYSTEM.DIHEDRAL>
0.426419

>  <SCORE.SYSTEM.POLAR>
-0.503134

>  <SCORE.SYSTEM.VDW>
-0.0154894

>  <SCORE.SYSTEM.norm>
-0.0945586

>  <SCORE.heavy>
16

>  <SCORE.norm>
-0.721316

>  <enum_code>
T

>  <enum_smi>
C=C1NN2C(=NC3=CCCC3=C2O)C1C#N

>  <sha256>
39e1b0cb6462242f67993cb5678037f9b85a03408faf08abbd395fb60bce143b

>  <std_smi>
Cc1nn2c(O)c3c(nc2c1C#N)CCC3

>  <uuid>
acaf5895-8334-450a-8ad6-82767e7dbeb8

$$$$
acaf5895-8334-450a-8ad6-82767e7dbeb8
  rDOCK(R)          3D
libRbt.so/2013.1/901 2013/11/27
 18 20  0  0  0  0  0  0  0  0999 V2000
    0.1909   32.3369   -0.2978 C   0  0  0  0  0  0
   -0.1737   31.5962    0.7569 C   0  0  0  0  0  0
    0.0515   30.2384    0.9015 N   0  0  0  0  0  0
   -0.6465   29.7369    1.9495 N   0  0  0  0  0  0
   -0.7364   28.4429    2.4163 C   0  0  0  0  0  0
   -0.1534   27.4378    1.6826 O   0  0  0  0  0  0
   -1.4046   28.2491    3.5652 C   0  0  0  0  0  0
   -1.9868   29.3810    4.2675 C   0  0  0  0  0  0
   -1.8748   30.6671    3.8039 N   0  0  0  0  0  0
   -1.2239   30.7766    2.6768 C   0  0  0  0  0  0
   -0.9622   32.1094    1.9827 C   0  0  0  0  0  0
   -2.2194   32.7563    1.6044 C   0  0  0  0  0  0
   -3.1934   33.3020    1.2804 N   0  0  0  0  0  0
   -2.6094   28.9841    5.3759 C   0  0  0  0  0  0
   -2.5210   27.5023    5.5570 C   0  0  0  0  0  0
   -1.7066   27.0098    4.3481 C   0  0  0  0  0  0
    0.0813   29.6782    0.0507 H   0  0  0  0  0  0
    0.0252   26.6963    2.2832 H   0  0  0  0  0  0
  1  2  2  0  0  0
  2  3  1  0  0  0
  3  4  1  0  0  0
  4  5  1  0  0  0
  5  6  1  0  0  0
  5  7  2  0  0  0
  7  8  1  0  0  0
  8  9  1  0  0  0
  9 10  2  0  0  0
 10 11  1  0  0  0
 11 12  1  0  0  0
 12 13  3  0  0  0
  8 14  2  0  0  0
 14 15  1  0  0  0
 15 16  1  0  0  0
 11  2  1  0  0  0
 10  4  1  0  0  0
 16  7  1  0  0  0
  3 17  1  0  0  0
  6 18  1  0  0  0
M  END
>  <CHROM.0>
-59.88758699,68.57680243

>  <CHROM.1>
156.71619842,-1.29680967,29.97700384,2.58882284,-1.36133924,-0.85032317,2.61901658

>  <Name>
acaf5895-8334-450a-8ad6-82767e7dbeb8

>  <RI>
1.96211e+07

>  <Rbt.Current_Directory>
/data/work/jku/5V6S/work/40/8dba899c20c42488f2b1a17844994e

>  <Rbt.Executable>
rbdock ($Id: //depot/dev/client3/rdock/2013.1/src/exe/rbdock.cxx#4 $)

>  <Rbt.Library>
libRbt.so (2013.1, Build901 2013/11/27)

>  <Rbt.Parameter_File>
/rDock_2013.1_src/data/scripts/dock.prm

>  <Rbt.Receptor>
docking.prm

>  <SCORE>
-15.6709

>  <SCORE.INTER>
-14.4053

>  <SCORE.INTER.CONST>
1

>  <SCORE.INTER.POLAR>
-0.935388

>  <SCORE.INTER.REPUL>
0.150668

>  <SCORE.INTER.ROT>
0

>  <SCORE.INTER.VDW>
-17.3784

>  <SCORE.INTER.norm>
-0.900334

>  <SCORE.INTRA>
0.247547

>  <SCORE.INTRA.DIHEDRAL>
0.760749

>  <SCORE.INTRA.DIHEDRAL.0>
0.00585311

>  <SCORE.INTRA.POLAR>
0

>  <SCORE.INTRA.POLAR.0>
0

>  <SCORE.INTRA.REPUL>
0

>  <SCORE.INTRA.REPUL.0>
0

>  <SCORE.INTRA.VDW>
-0.132827

>  <SCORE.INTRA.VDW.0>
0.178653

>  <SCORE.INTRA.norm>
0.0154717

>  <SCORE.RESTR>
0

>  <SCORE.RESTR.CAVITY>
0

>  <SCORE.RESTR.norm>
0

>  <SCORE.SYSTEM>
-1.51314

>  <SCORE.SYSTEM.CONST>
0

>  <SCORE.SYSTEM.DIHEDRAL>
0.364583

>  <SCORE.SYSTEM.POLAR>
-0.502655

>  <SCORE.SYSTEM.VDW>
0.013591

>  <SCORE.SYSTEM.norm>
-0.0945714

>  <SCORE.heavy>
16

>  <SCORE.norm>
-0.979433

>  <enum_code>
T

>  <enum_smi>
C=C1NN2C(=NC3=CCCC3=C2O)C1C#N

>  <sha256>
39e1b0cb6462242f67993cb5678037f9b85a03408faf08abbd395fb60bce143b

>  <std_smi>
Cc1nn2c(O)c3c(nc2c1C#N)CCC3

>  <uuid>
acaf5895-8334-450a-8ad6-82767e7dbeb8

$$$$
41d3623e-acd8-423e-8965-2314a4c32a17
  rDOCK(R)          3D
libRbt.so/2013.1/901 2013/11/27
 18 20  0  0  0  0  0  0  0  0999 V2000
   -0.0492   32.5187   -0.1133 C   0  0  0  0  0  0
   -0.4870   31.6831    0.8333 C   0  0  0  0  0  0
   -0.0899   30.3653    1.0187 N   0  0  0  0  0  0
   -0.9521   29.8189    1.9754 N   0  0  0  0  0  0
   -0.9435   28.4886    2.3658 C   0  0  0  0  0  0
   -0.2398   27.6057    1.8862 O   0  0  0  0  0  0
   -1.9194   28.2058    3.4512 C   0  0  0  0  0  0
   -2.6953   29.1854    3.9403 C   0  0  0  0  0  0
   -2.6530   30.4805    3.4942 N   0  0  0  0  0  0
   -1.7722   30.8076    2.4947 C   0  0  0  0  0  0
   -1.5122   31.9566    1.8431 C   0  0  0  0  0  0
   -2.1501   33.1935    2.0690 C   0  0  0  0  0  0
   -2.6911   34.2016    2.2657 N   0  0  0  0  0  0
   -3.5924   28.6803    5.0179 C   0  0  0  0  0  0
   -3.4619   27.1572    4.8622 C   0  0  0  0  0  0
   -2.1557   26.8956    4.0987 C   0  0  0  0  0  0
    0.0076   29.8084    0.1703 H   0  0  0  0  0  0
   -3.2604   31.1847    3.8980 H   0  0  0  0  0  0
  1  2  2  0  0  0
  2  3  1  0  0  0
  3  4  1  0  0  0
  4  5  1  0  0  0
  5  6  2  0  0  0
  5  7  1  0  0  0
  7  8  2  0  0  0
  8  9  1  0  0  0
  9 10  1  0  0  0
 10 11  2  0  0  0
 11 12  1  0  0  0
 12 13  3  0  0  0
  8 14  1  0  0  0
 14 15  1  0  0  0
 15 16  1  0  0  0
 11  2  1  0  0  0
 10  4  1  0  0  0
 16  7  1  0  0  0
  3 17  1  0  0  0
  9 18  1  0  0  0
M  END
>  <CHROM.0>
-59.88758699,68.93829004

>  <CHROM.1>
-1.70064922,30.03052400,2.59323025,-1.24793437,-0.76643152,2.83844792

>  <Name>
41d3623e-acd8-423e-8965-2314a4c32a17

>  <RI>
2.77722e+07

>  <Rbt.Current_Directory>
/data/work/jku/5V6S/work/40/8dba899c20c42488f2b1a17844994e

>  <Rbt.Executable>
rbdock ($Id: //depot/dev/client3/rdock/2013.1/src/exe/rbdock.cxx#4 $)

>  <Rbt.Library>
libRbt.so (2013.1, Build901 2013/11/27)

>  <Rbt.Parameter_File>
/rDock_2013.1_src/data/scripts/dock.prm

>  <Rbt.Receptor>
docking.prm

>  <SCORE>
-15.7337

>  <SCORE.INTER>
-14.22

>  <SCORE.INTER.CONST>
1

>  <SCORE.INTER.POLAR>
-1.25048

>  <SCORE.INTER.REPUL>
6.35556e-05

>  <SCORE.INTER.ROT>
0

>  <SCORE.INTER.VDW>
-15.3687

>  <SCORE.INTER.norm>
-0.888753

>  <SCORE.INTRA>
0

>  <SCORE.INTRA.DIHEDRAL>
0

>  <SCORE.INTRA.DIHEDRAL.0>
0

>  <SCORE.INTRA.POLAR>
0

>  <SCORE.INTRA.POLAR.0>
0

>  <SCORE.INTRA.REPUL>
0

>  <SCORE.INTRA.REPUL.0>
0

>  <SCORE.INTRA.VDW>
0

>  <SCORE.INTRA.VDW.0>
0

>  <SCORE.INTRA.norm>
0

>  <SCORE.RESTR>
0

>  <SCORE.RESTR.CAVITY>
0

>  <SCORE.RESTR.norm>
0

>  <SCORE.SYSTEM>
-1.51366

>  <SCORE.SYSTEM.CONST>
0

>  <SCORE.SYSTEM.DIHEDRAL>
0.394744

>  <SCORE.SYSTEM.POLAR>
-0.502947

>  <SCORE.SYSTEM.VDW>
-0.00101809

>  <SCORE.SYSTEM.norm>
-0.0946041

>  <SCORE.heavy>
16

>  <SCORE.norm>
-0.983357

>  <enum_code>
T

>  <enum_smi>
C=C1NN2C(=O)C3=C(CCC3)NC2=C1C#N

>  <sha256>
39e1b0cb6462242f67993cb5678037f9b85a03408faf08abbd395fb60bce143b

>  <std_smi>
Cc1nn2c(O)c3c(nc2c1C#N)CCC3

>  <uuid>
41d3623e-acd8-423e-8965-2314a4c32a17

$$$$
41d3623e-acd8-423e-8965-2314a4c32a17
  rDOCK(R)          3D
libRbt.so/2013.1/901 2013/11/27
 18 20  0  0  0  0  0  0  0  0999 V2000
   -0.0507   32.5077   -0.1182 C   0  0  0  0  0  0
   -0.4871   31.6746    0.8312 C   0  0  0  0  0  0
   -0.0897   30.3573    1.0197 N   0  0  0  0  0  0
   -0.9506   29.8134    1.9790 N   0  0  0  0  0  0
   -0.9414   28.4843    2.3730 C   0  0  0  0  0  0
   -0.2383   27.6002    1.8949 O   0  0  0  0  0  0
   -1.9159   28.2043    3.4604 C   0  0  0  0  0  0
   -2.6911   29.1852    3.9479 C   0  0  0  0  0  0
   -2.6495   30.4791    3.4983 N   0  0  0  0  0  0
   -1.7701   30.8036    2.4967 C   0  0  0  0  0  0
   -1.5110   31.9508    1.8416 C   0  0  0  0  0  0
   -2.1487   33.1883    2.0651 C   0  0  0  0  0  0
   -2.6896   34.1969    2.2597 N   0  0  0  0  0  0
   -3.5868   28.6829    5.0281 C   0  0  0  0  0  0
   -3.4563   27.1595    4.8763 C   0  0  0  0  0  0
   -2.1512   26.8959    4.1118 C   0  0  0  0  0  0
    0.0067   29.7982    0.1727 H   0  0  0  0  0  0
   -3.2565   31.1843    3.9009 H   0  0  0  0  0  0
  1  2  2  0  0  0
  2  3  1  0  0  0
  3  4  1  0  0  0
  4  5  1  0  0  0
  5  6  2  0  0  0
  5  7  1  0  0  0
  7  8  2  0  0  0
  8  9  1  0  0  0
  9 10  1  0  0  0
 10 11  2  0  0  0
 11 12  1  0  0  0
 12 13  3  0  0  0
  8 14  1  0  0  0
 14 15  1  0  0  0
 15 16  1  0  0  0
 11  2  1  0  0  0
 10  4  1  0  0  0
 16  7  1  0  0  0
  3 17  1  0  0  0
  9 18  1  0  0  0
M  END
>  <CHROM.0>
-59.88758699,68.71150395

>  <CHROM.1>
-1.69834048,30.02673886,2.59725714,-1.24858286,-0.76767602,2.83529070

>  <Name>
41d3623e-acd8-423e-8965-2314a4c32a17

>  <RI>
2.77722e+07

>  <Rbt.Current_Directory>
/data/work/jku/5V6S/work/40/8dba899c20c42488f2b1a17844994e

>  <Rbt.Executable>
rbdock ($Id: //depot/dev/client3/rdock/2013.1/src/exe/rbdock.cxx#4 $)

>  <Rbt.Library>
libRbt.so (2013.1, Build901 2013/11/27)

>  <Rbt.Parameter_File>
/rDock_2013.1_src/data/scripts/dock.prm

>  <Rbt.Receptor>
docking.prm

>  <SCORE>
-15.7282

>  <SCORE.INTER>
-14.2147

>  <SCORE.INTER.CONST>
1

>  <SCORE.INTER.POLAR>
-1.2439

>  <SCORE.INTER.REPUL>
0.000208139

>  <SCORE.INTER.ROT>
0

>  <SCORE.INTER.VDW>
-15.3865

>  <SCORE.INTER.norm>
-0.888418

>  <SCORE.INTRA>
0

>  <SCORE.INTRA.DIHEDRAL>
0

>  <SCORE.INTRA.DIHEDRAL.0>
0

>  <SCORE.INTRA.POLAR>
0

>  <SCORE.INTRA.POLAR.0>
0

>  <SCORE.INTRA.REPUL>
0

>  <SCORE.INTRA.REPUL.0>
0

>  <SCORE.INTRA.VDW>
0

>  <SCORE.INTRA.VDW.0>
0

>  <SCORE.INTRA.norm>
0

>  <SCORE.RESTR>
0

>  <SCORE.RESTR.CAVITY>
0

>  <SCORE.RESTR.norm>
0

>  <SCORE.SYSTEM>
-1.51348

>  <SCORE.SYSTEM.CONST>
0

>  <SCORE.SYSTEM.DIHEDRAL>
0.375687

>  <SCORE.SYSTEM.POLAR>
-0.502776

>  <SCORE.SYSTEM.VDW>
0.00811199

>  <SCORE.SYSTEM.norm>
-0.0945927

>  <SCORE.heavy>
16

>  <SCORE.norm>
-0.983011

>  <enum_code>
T

>  <enum_smi>
C=C1NN2C(=O)C3=C(CCC3)NC2=C1C#N

>  <sha256>
39e1b0cb6462242f67993cb5678037f9b85a03408faf08abbd395fb60bce143b

>  <std_smi>
Cc1nn2c(O)c3c(nc2c1C#N)CCC3

>  <uuid>
41d3623e-acd8-423e-8965-2314a4c32a17

$$$$
41d3623e-acd8-423e-8965-2314a4c32a17
  rDOCK(R)          3D
libRbt.so/2013.1/901 2013/11/27
 18 20  0  0  0  0  0  0  0  0999 V2000
   -7.9942   26.8738    4.0672 C   0  0  0  0  0  0
   -6.7137   26.5490    4.2690 C   0  0  0  0  0  0
   -6.0795   25.3891    3.8435 N   0  0  0  0  0  0
   -4.8209   25.3747    4.4541 N   0  0  0  0  0  0
   -3.9173   24.3277    4.3570 C   0  0  0  0  0  0
   -4.1184   23.2581    3.7912 O   0  0  0  0  0  0
   -2.6322   24.6168    5.0464 C   0  0  0  0  0  0
   -2.4481   25.7854    5.6797 C   0  0  0  0  0  0
   -3.3968   26.7726    5.7408 N   0  0  0  0  0  0
   -4.6045   26.5687    5.1232 C   0  0  0  0  0  0
   -5.7194   27.3166    5.0224 C   0  0  0  0  0  0
   -5.9053   28.5965    5.5838 C   0  0  0  0  0  0
   -6.0414   29.6470    6.0588 N   0  0  0  0  0  0
   -1.0929   25.8617    6.2952 C   0  0  0  0  0  0
   -0.6151   24.4037    6.2107 C   0  0  0  0  0  0
   -1.4580   23.7185    5.1256 C   0  0  0  0  0  0
   -6.6125   24.5270    3.9533 H   0  0  0  0  0  0
   -3.2078   27.6392    6.2319 H   0  0  0  0  0  0
  1  2  2  0  0  0
  2  3  1  0  0  0
  3  4  1  0  0  0
  4  5  1  0  0  0
  5  6  2  0  0  0
  5  7  1  0  0  0
  7  8  2  0  0  0
  8  9  1  0  0  0
  9 10  1  0  0  0
 10 11  2  0  0  0
 11 12  1  0  0  0
 12 13  3  0  0  0
  8 14  1  0  0  0
 14 15  1  0  0  0
 15 16  1  0  0  0
 11  2  1  0  0  0
 10  4  1  0  0  0
 16  7  1  0  0  0
  3 17  1  0  0  0
  9 18  1  0  0  0
M  END
>  <CHROM.0>
-59.88758699,68.41752003

>  <CHROM.1>
-4.20511651,25.89711477,5.03273544,2.69068285,-0.37414272,0.44935004

>  <Name>
41d3623e-acd8-423e-8965-2314a4c32a17

>  <RI>
2.77722e+07

>  <Rbt.Current_Directory>
/data/work/jku/5V6S/work/40/8dba899c20c42488f2b1a17844994e

>  <Rbt.Executable>
rbdock ($Id: //depot/dev/client3/rdock/2013.1/src/exe/rbdock.cxx#4 $)

>  <Rbt.Library>
libRbt.so (2013.1, Build901 2013/11/27)

>  <Rbt.Parameter_File>
/rDock_2013.1_src/data/scripts/dock.prm

>  <Rbt.Receptor>
docking.prm

>  <SCORE>
-12.549

>  <SCORE.INTER>
-11.0365

>  <SCORE.INTER.CONST>
1

>  <SCORE.INTER.POLAR>
0

>  <SCORE.INTER.REPUL>
0.0262422

>  <SCORE.INTER.ROT>
0

>  <SCORE.INTER.VDW>
-16.5677

>  <SCORE.INTER.norm>
-0.689783

>  <SCORE.INTRA>
0

>  <SCORE.INTRA.DIHEDRAL>
0

>  <SCORE.INTRA.DIHEDRAL.0>
0

>  <SCORE.INTRA.POLAR>
0

>  <SCORE.INTRA.POLAR.0>
0

>  <SCORE.INTRA.REPUL>
0

>  <SCORE.INTRA.REPUL.0>
0

>  <SCORE.INTRA.VDW>
0

>  <SCORE.INTRA.VDW.0>
0

>  <SCORE.INTRA.norm>
0

>  <SCORE.RESTR>
0

>  <SCORE.RESTR.CAVITY>
0

>  <SCORE.RESTR.norm>
0

>  <SCORE.SYSTEM>
-1.51252

>  <SCORE.SYSTEM.CONST>
0

>  <SCORE.SYSTEM.DIHEDRAL>
0.351661

>  <SCORE.SYSTEM.POLAR>
-0.502492

>  <SCORE.SYSTEM.VDW>
0.0201242

>  <SCORE.SYSTEM.norm>
-0.0945324

>  <SCORE.heavy>
16

>  <SCORE.norm>
-0.784316

>  <enum_code>
T

>  <enum_smi>
C=C1NN2C(=O)C3=C(CCC3)NC2=C1C#N

>  <sha256>
39e1b0cb6462242f67993cb5678037f9b85a03408faf08abbd395fb60bce143b

>  <std_smi>
Cc1nn2c(O)c3c(nc2c1C#N)CCC3

>  <uuid>
41d3623e-acd8-423e-8965-2314a4c32a17

$$$$
41d3623e-acd8-423e-8965-2314a4c32a17
  rDOCK(R)          3D
libRbt.so/2013.1/901 2013/11/27
 18 20  0  0  0  0  0  0  0  0999 V2000
    0.5563   22.9738    3.9789 C   0  0  0  0  0  0
   -0.5127   23.7721    4.0557 C   0  0  0  0  0  0
   -0.5109   25.1602    4.0143 N   0  0  0  0  0  0
   -1.8076   25.5715    4.3409 N   0  0  0  0  0  0
   -2.1904   26.8943    4.5017 C   0  0  0  0  0  0
   -1.4449   27.8671    4.4503 O   0  0  0  0  0  0
   -3.6446   27.0386    4.7748 C   0  0  0  0  0  0
   -4.4330   25.9554    4.8511 C   0  0  0  0  0  0
   -3.9775   24.6730    4.6896 N   0  0  0  0  0  0
   -2.6450   24.4715    4.4335 C   0  0  0  0  0  0
   -1.9052   23.3617    4.2508 C   0  0  0  0  0  0
   -2.3863   22.0368    4.2857 C   0  0  0  0  0  0
   -2.8005   20.9530    4.3242 N   0  0  0  0  0  0
   -5.8480   26.3324    5.1287 C   0  0  0  0  0  0
   -5.7166   27.8069    5.5405 C   0  0  0  0  0  0
   -4.3754   28.3086    4.9866 C   0  0  0  0  0  0
    0.2255   25.6184    4.5501 H   0  0  0  0  0  0
   -4.6150   23.8875    4.7559 H   0  0  0  0  0  0
  1  2  2  0  0  0
  2  3  1  0  0  0
  3  4  1  0  0  0
  4  5  1  0  0  0
  5  6  2  0  0  0
  5  7  1  0  0  0
  7  8  2  0  0  0
  8  9  1  0  0  0
  9 10  1  0  0  0
 10 11  2  0  0  0
 11 12  1  0  0  0
 12 13  3  0  0  0
  8 14  1  0  0  0
 14 15  1  0  0  0
 15 16  1  0  0  0
 11  2  1  0  0  0
 10  4  1  0  0  0
 16  7  1  0  0  0
  3 17  1  0  0  0
  9 18  1  0  0  0
M  END
>  <CHROM.0>
-59.88758699,68.75927919

>  <CHROM.1>
-2.72392666,25.24626733,4.54406164,-0.94479170,0.18554739,0.05810511

>  <Name>
41d3623e-acd8-423e-8965-2314a4c32a17

>  <RI>
2.77722e+07

>  <Rbt.Current_Directory>
/data/work/jku/5V6S/work/40/8dba899c20c42488f2b1a17844994e

>  <Rbt.Executable>
rbdock ($Id: //depot/dev/client3/rdock/2013.1/src/exe/rbdock.cxx#4 $)

>  <Rbt.Library>
libRbt.so (2013.1, Build901 2013/11/27)

>  <Rbt.Parameter_File>
/rDock_2013.1_src/data/scripts/dock.prm

>  <Rbt.Receptor>
docking.prm

>  <SCORE>
-11.2978

>  <SCORE.INTER>
-9.78425

>  <SCORE.INTER.CONST>
1

>  <SCORE.INTER.POLAR>
0

>  <SCORE.INTER.REPUL>
0

>  <SCORE.INTER.ROT>
0

>  <SCORE.INTER.VDW>
-15.1843

>  <SCORE.INTER.norm>
-0.611516

>  <SCORE.INTRA>
0

>  <SCORE.INTRA.DIHEDRAL>
0

>  <SCORE.INTRA.DIHEDRAL.0>
0

>  <SCORE.INTRA.POLAR>
0

>  <SCORE.INTRA.POLAR.0>
0

>  <SCORE.INTRA.REPUL>
0

>  <SCORE.INTRA.REPUL.0>
0

>  <SCORE.INTRA.VDW>
0

>  <SCORE.INTRA.VDW.0>
0

>  <SCORE.INTRA.norm>
0

>  <SCORE.RESTR>
0

>  <SCORE.RESTR.CAVITY>
0

>  <SCORE.RESTR.norm>
0

>  <SCORE.SYSTEM>
-1.51356

>  <SCORE.SYSTEM.CONST>
0

>  <SCORE.SYSTEM.DIHEDRAL>
0.379663

>  <SCORE.SYSTEM.POLAR>
-0.502815

>  <SCORE.SYSTEM.VDW>
0.00617879

>  <SCORE.SYSTEM.norm>
-0.0945976

>  <SCORE.heavy>
16

>  <SCORE.norm>
-0.706113

>  <enum_code>
T

>  <enum_smi>
C=C1NN2C(=O)C3=C(CCC3)NC2=C1C#N

>  <sha256>
39e1b0cb6462242f67993cb5678037f9b85a03408faf08abbd395fb60bce143b

>  <std_smi>
Cc1nn2c(O)c3c(nc2c1C#N)CCC3

>  <uuid>
41d3623e-acd8-423e-8965-2314a4c32a17

$$$$
41d3623e-acd8-423e-8965-2314a4c32a17
  rDOCK(R)          3D
libRbt.so/2013.1/901 2013/11/27
 18 20  0  0  0  0  0  0  0  0999 V2000
   -0.0563   32.5107   -0.1167 C   0  0  0  0  0  0
   -0.4922   31.6782    0.8334 C   0  0  0  0  0  0
   -0.0957   30.3606    1.0218 N   0  0  0  0  0  0
   -0.9558   29.8177    1.9823 N   0  0  0  0  0  0
   -0.9472   28.4887    2.3767 C   0  0  0  0  0  0
   -0.2455   27.6038    1.8978 O   0  0  0  0  0  0
   -1.9205   28.2099    3.4654 C   0  0  0  0  0  0
   -2.6944   29.1915    3.9536 C   0  0  0  0  0  0
   -2.6522   30.4853    3.5037 N   0  0  0  0  0  0
   -1.7738   30.8087    2.5009 C   0  0  0  0  0  0
   -1.5145   31.9555    1.8451 C   0  0  0  0  0  0
   -2.1509   33.1936    2.0691 C   0  0  0  0  0  0
   -2.6906   34.2028    2.2641 N   0  0  0  0  0  0
   -3.5890   28.6903    5.0351 C   0  0  0  0  0  0
   -3.4601   27.1667    4.8836 C   0  0  0  0  0  0
   -2.1561   26.9018    4.1174 C   0  0  0  0  0  0
   -0.0008   29.8012    0.1748 H   0  0  0  0  0  0
   -3.2580   31.1911    3.9069 H   0  0  0  0  0  0
  1  2  2  0  0  0
  2  3  1  0  0  0
  3  4  1  0  0  0
  4  5  1  0  0  0
  5  6  2  0  0  0
  5  7  1  0  0  0
  7  8  2  0  0  0
  8  9  1  0  0  0
  9 10  1  0  0  0
 10 11  2  0  0  0
 11 12  1  0  0  0
 12 13  3  0  0  0
  8 14  1  0  0  0
 14 15  1  0  0  0
 15 16  1  0  0  0
 11  2  1  0  0  0
 10  4  1  0  0  0
 16  7  1  0  0  0
  3 17  1  0  0  0
  9 18  1  0  0  0
M  END
>  <CHROM.0>
-59.88758699,68.93822974

>  <CHROM.1>
-1.70256570,30.03184556,2.60148478,-1.24797838,-0.76916903,2.83544945

>  <Name>
41d3623e-acd8-423e-8965-2314a4c32a17

>  <RI>
2.77722e+07

>  <Rbt.Current_Directory>
/data/work/jku/5V6S/work/40/8dba899c20c42488f2b1a17844994e

>  <Rbt.Executable>
rbdock ($Id: //depot/dev/client3/rdock/2013.1/src/exe/rbdock.cxx#4 $)

>  <Rbt.Library>
libRbt.so (2013.1, Build901 2013/11/27)

>  <Rbt.Parameter_File>
/rDock_2013.1_src/data/scripts/dock.prm

>  <Rbt.Receptor>
docking.prm

>  <SCORE>
-15.7268

>  <SCORE.INTER>
-14.2131

>  <SCORE.INTER.CONST>
1

>  <SCORE.INTER.POLAR>
-1.24875

>  <SCORE.INTER.REPUL>
1.41915e-05

>  <SCORE.INTER.ROT>
0

>  <SCORE.INTER.VDW>
-15.3674

>  <SCORE.INTER.norm>
-0.888319

>  <SCORE.INTRA>
0

>  <SCORE.INTRA.DIHEDRAL>
0

>  <SCORE.INTRA.DIHEDRAL.0>
0

>  <SCORE.INTRA.POLAR>
0

>  <SCORE.INTRA.POLAR.0>
0

>  <SCORE.INTRA.REPUL>
0

>  <SCORE.INTRA.REPUL.0>
0

>  <SCORE.INTRA.VDW>
0

>  <SCORE.INTRA.VDW.0>
0

>  <SCORE.INTRA.norm>
0

>  <SCORE.RESTR>
0

>  <SCORE.RESTR.CAVITY>
0

>  <SCORE.RESTR.norm>
0

>  <SCORE.SYSTEM>
-1.51366

>  <SCORE.SYSTEM.CONST>
0

>  <SCORE.SYSTEM.DIHEDRAL>
0.394739

>  <SCORE.SYSTEM.POLAR>
-0.502947

>  <SCORE.SYSTEM.VDW>
-0.00101568

>  <SCORE.SYSTEM.norm>
-0.0946041

>  <SCORE.heavy>
16

>  <SCORE.norm>
-0.982923

>  <enum_code>
T

>  <enum_smi>
C=C1NN2C(=O)C3=C(CCC3)NC2=C1C#N

>  <sha256>
39e1b0cb6462242f67993cb5678037f9b85a03408faf08abbd395fb60bce143b

>  <std_smi>
Cc1nn2c(O)c3c(nc2c1C#N)CCC3

>  <uuid>
41d3623e-acd8-423e-8965-2314a4c32a17

$$$$
ce65fe6b-092a-4d56-a512-ac3e7f21d90e
  rDOCK(R)          3D
libRbt.so/2013.1/901 2013/11/27
 17 19  0  0  0  0  0  0  0  0999 V2000
   -0.5812   24.5517    6.6675 C   0  0  0  0  0  0
   -1.6750   24.7890    5.9327 C   0  0  0  0  0  0
   -2.2333   26.0290    5.7013 N   0  0  0  0  0  0
   -3.5425   25.8581    5.2848 N   0  0  0  0  0  0
   -4.4936   26.8571    5.4009 C   0  0  0  0  0  0
   -4.2459   28.0109    5.7482 O   0  0  0  0  0  0
   -5.9068   26.3334    5.2010 C   0  0  0  0  0  0
   -5.8944   25.0259    4.4576 C   0  0  0  0  0  0
   -4.9578   24.0554    4.6774 N   0  0  0  0  0  0
   -3.8048   24.5168    5.0505 C   0  0  0  0  0  0
   -2.5621   23.7004    5.3213 C   0  0  0  0  0  0
   -2.0024   23.1782    4.0734 C   0  0  0  0  0  0
   -1.5389   22.7426    3.1010 N   0  0  0  0  0  0
   -6.8596   24.9741    3.5372 C   0  0  0  0  0  0
   -7.6470   26.2423    3.5004 C   0  0  0  0  0  0
   -6.7743   27.2131    4.3034 C   0  0  0  0  0  0
   -2.0847   26.7536    6.4067 H   0  0  0  0  0  0
  1  2  2  0  0  0
  2  3  1  0  0  0
  3  4  1  0  0  0
  4  5  1  0  0  0
  5  6  2  0  0  0
  5  7  1  0  0  0
  7  8  1  0  0  0
  8  9  1  0  0  0
  9 10  2  0  0  0
 10 11  1  0  0  0
 11 12  1  0  0  0
 12 13  3  0  0  0
  8 14  2  0  0  0
 14 15  1  0  0  0
 15 16  1  0  0  0
 11  2  1  0  0  0
 10  4  1  0  0  0
 16  7  1  0  0  0
  3 17  1  0  0  0
M  END
>  <CHROM.0>
-59.88758699,68.69000516

>  <CHROM.1>
-4.04510528,25.30904050,4.88518480,-0.27881936,-0.37141892,0.53276864

>  <Name>
ce65fe6b-092a-4d56-a512-ac3e7f21d90e

>  <RI>
2.18698e+07

>  <Rbt.Current_Directory>
/data/work/jku/5V6S/work/40/8dba899c20c42488f2b1a17844994e

>  <Rbt.Executable>
rbdock ($Id: //depot/dev/client3/rdock/2013.1/src/exe/rbdock.cxx#4 $)

>  <Rbt.Library>
libRbt.so (2013.1, Build901 2013/11/27)

>  <Rbt.Parameter_File>
/rDock_2013.1_src/data/scripts/dock.prm

>  <Rbt.Receptor>
docking.prm

>  <SCORE>
-12.168

>  <SCORE.INTER>
-10.6545

>  <SCORE.INTER.CONST>
1

>  <SCORE.INTER.POLAR>
0

>  <SCORE.INTER.REPUL>
0

>  <SCORE.INTER.ROT>
0

>  <SCORE.INTER.VDW>
-16.0545

>  <SCORE.INTER.norm>
-0.665909

>  <SCORE.INTRA>
0

>  <SCORE.INTRA.DIHEDRAL>
0

>  <SCORE.INTRA.DIHEDRAL.0>
0

>  <SCORE.INTRA.POLAR>
0

>  <SCORE.INTRA.POLAR.0>
0

>  <SCORE.INTRA.REPUL>
0

>  <SCORE.INTRA.REPUL.0>
0

>  <SCORE.INTRA.VDW>
0

>  <SCORE.INTRA.VDW.0>
0

>  <SCORE.INTRA.norm>
0

>  <SCORE.RESTR>
0

>  <SCORE.RESTR.CAVITY>
0

>  <SCORE.RESTR.norm>
0

>  <SCORE.SYSTEM>
-1.51344

>  <SCORE.SYSTEM.CONST>
0

>  <SCORE.SYSTEM.DIHEDRAL>
0.373904

>  <SCORE.SYSTEM.POLAR>
-0.502757

>  <SCORE.SYSTEM.VDW>
0.00898364

>  <SCORE.SYSTEM.norm>
-0.09459

>  <SCORE.heavy>
16

>  <SCORE.norm>
-0.760499

>  <enum_code>
T

>  <enum_smi>
C=C1NN2C(=O)C3CCC=C3N=C2C1C#N

>  <sha256>
39e1b0cb6462242f67993cb5678037f9b85a03408faf08abbd395fb60bce143b

>  <std_smi>
Cc1nn2c(O)c3c(nc2c1C#N)CCC3

>  <uuid>
ce65fe6b-092a-4d56-a512-ac3e7f21d90e

$$$$
ce65fe6b-092a-4d56-a512-ac3e7f21d90e
  rDOCK(R)          3D
libRbt.so/2013.1/901 2013/11/27
 17 19  0  0  0  0  0  0  0  0999 V2000
   -3.3159   30.4124    6.4846 C   0  0  0  0  0  0
   -2.5116   30.5579    5.4241 C   0  0  0  0  0  0
   -1.6609   31.6208    5.2015 N   0  0  0  0  0  0
   -1.3269   31.6511    3.8582 N   0  0  0  0  0  0
   -0.8790   32.8013    3.2317 C   0  0  0  0  0  0
   -0.6083   33.8480    3.8186 O   0  0  0  0  0  0
   -0.9049   32.6795    1.7165 C   0  0  0  0  0  0
   -0.9237   31.2360    1.2945 C   0  0  0  0  0  0
   -1.6462   30.2796    1.9507 N   0  0  0  0  0  0
   -1.7889   30.5109    3.2186 C   0  0  0  0  0  0
   -2.4920   29.6180    4.2150 C   0  0  0  0  0  0
   -1.7052   28.4112    4.4755 C   0  0  0  0  0  0
   -1.1078   27.4394    4.6969 N   0  0  0  0  0  0
   -0.1111   31.0156    0.2587 C   0  0  0  0  0  0
    0.5967   32.2638   -0.1546 C   0  0  0  0  0  0
    0.3531   33.2061    1.0292 C   0  0  0  0  0  0
   -1.9107   32.5212    5.6155 H   0  0  0  0  0  0
  1  2  2  0  0  0
  2  3  1  0  0  0
  3  4  1  0  0  0
  4  5  1  0  0  0
  5  6  2  0  0  0
  5  7  1  0  0  0
  7  8  1  0  0  0
  8  9  1  0  0  0
  9 10  2  0  0  0
 10 11  1  0  0  0
 11 12  1  0  0  0
 12 13  3  0  0  0
  8 14  2  0  0  0
 14 15  1  0  0  0
 15 16  1  0  0  0
 11  2  1  0  0  0
 10  4  1  0  0  0
 16  7  1  0  0  0
  3 17  1  0  0  0
M  END
>  <CHROM.0>
-59.88758699,68.66004035

>  <CHROM.1>
-1.23575261,31.14773755,3.18591699,2.85369891,-1.15277155,-2.85792354

>  <Name>
ce65fe6b-092a-4d56-a512-ac3e7f21d90e

>  <RI>
2.18698e+07

>  <Rbt.Current_Directory>
/data/work/jku/5V6S/work/40/8dba899c20c42488f2b1a17844994e

>  <Rbt.Executable>
rbdock ($Id: //depot/dev/client3/rdock/2013.1/src/exe/rbdock.cxx#4 $)

>  <Rbt.Library>
libRbt.so (2013.1, Build901 2013/11/27)

>  <Rbt.Parameter_File>
/rDock_2013.1_src/data/scripts/dock.prm

>  <Rbt.Receptor>
docking.prm

>  <SCORE>
-14.7439

>  <SCORE.INTER>
-13.2305

>  <SCORE.INTER.CONST>
1

>  <SCORE.INTER.POLAR>
-0.748166

>  <SCORE.INTER.REPUL>
0.0488854

>  <SCORE.INTER.ROT>
0

>  <SCORE.INTER.VDW>
-16.3311

>  <SCORE.INTER.norm>
-0.826905

>  <SCORE.INTRA>
0

>  <SCORE.INTRA.DIHEDRAL>
0

>  <SCORE.INTRA.DIHEDRAL.0>
0

>  <SCORE.INTRA.POLAR>
0

>  <SCORE.INTRA.POLAR.0>
0

>  <SCORE.INTRA.REPUL>
0

>  <SCORE.INTRA.REPUL.0>
0

>  <SCORE.INTRA.VDW>
0

>  <SCORE.INTRA.VDW.0>
0

>  <SCORE.INTRA.norm>
0

>  <SCORE.RESTR>
0

>  <SCORE.RESTR.CAVITY>
0

>  <SCORE.RESTR.norm>
0

>  <SCORE.SYSTEM>
-1.51337

>  <SCORE.SYSTEM.CONST>
0

>  <SCORE.SYSTEM.DIHEDRAL>
0.371425

>  <SCORE.SYSTEM.POLAR>
-0.502731

>  <SCORE.SYSTEM.VDW>
0.0102003

>  <SCORE.SYSTEM.norm>
-0.0945858

>  <SCORE.heavy>
16

>  <SCORE.norm>
-0.921491

>  <enum_code>
T

>  <enum_smi>
C=C1NN2C(=O)C3CCC=C3N=C2C1C#N

>  <sha256>
39e1b0cb6462242f67993cb5678037f9b85a03408faf08abbd395fb60bce143b

>  <std_smi>
Cc1nn2c(O)c3c(nc2c1C#N)CCC3

>  <uuid>
ce65fe6b-092a-4d56-a512-ac3e7f21d90e

$$$$
ce65fe6b-092a-4d56-a512-ac3e7f21d90e
  rDOCK(R)          3D
libRbt.so/2013.1/901 2013/11/27
 17 19  0  0  0  0  0  0  0  0999 V2000
   -8.4854   27.6854    4.0283 C   0  0  0  0  0  0
   -7.5432   26.7777    4.3133 C   0  0  0  0  0  0
   -6.4538   26.9820    5.1344 N   0  0  0  0  0  0
   -5.5021   26.0142    4.8620 N   0  0  0  0  0  0
   -4.1623   26.1865    5.1642 C   0  0  0  0  0  0
   -3.7155   27.1318    5.8123 O   0  0  0  0  0  0
   -3.2792   25.1588    4.4748 C   0  0  0  0  0  0
   -4.0796   23.9537    4.0629 C   0  0  0  0  0  0
   -5.3461   24.0406    3.5574 N   0  0  0  0  0  0
   -6.0199   25.0532    4.0070 C   0  0  0  0  0  0
   -7.4554   25.3888    3.6738 C   0  0  0  0  0  0
   -8.3708   24.4381    4.3072 C   0  0  0  0  0  0
   -9.1222   23.6949    4.7901 N   0  0  0  0  0  0
   -3.4228   22.8185    4.3114 C   0  0  0  0  0  0
   -2.0997   23.0826    4.9511 C   0  0  0  0  0  0
   -2.2112   24.5496    5.3806 C   0  0  0  0  0  0
   -6.1007   27.9371    5.2228 H   0  0  0  0  0  0
  1  2  2  0  0  0
  2  3  1  0  0  0
  3  4  1  0  0  0
  4  5  1  0  0  0
  5  6  2  0  0  0
  5  7  1  0  0  0
  7  8  1  0  0  0
  8  9  1  0  0  0
  9 10  2  0  0  0
 10 11  1  0  0  0
 11 12  1  0  0  0
 12 13  3  0  0  0
  8 14  2  0  0  0
 14 15  1  0  0  0
 15 16  1  0  0  0
 11  2  1  0  0  0
 10  4  1  0  0  0
 16  7  1  0  0  0
  3 17  1  0  0  0
M  END
>  <CHROM.0>
-59.88758699,69.43078375

>  <CHROM.1>
-5.42398928,25.22139652,4.58081608,-2.86160321,0.16625325,-2.93200148

>  <Name>
ce65fe6b-092a-4d56-a512-ac3e7f21d90e

>  <RI>
2.18698e+07

>  <Rbt.Current_Directory>
/data/work/jku/5V6S/work/40/8dba899c20c42488f2b1a17844994e

>  <Rbt.Executable>
rbdock ($Id: //depot/dev/client3/rdock/2013.1/src/exe/rbdock.cxx#4 $)

>  <Rbt.Library>
libRbt.so (2013.1, Build901 2013/11/27)

>  <Rbt.Parameter_File>
/rDock_2013.1_src/data/scripts/dock.prm

>  <Rbt.Receptor>
docking.prm

>  <SCORE>
-12.2437

>  <SCORE.INTER>
-10.7313

>  <SCORE.INTER.CONST>
1

>  <SCORE.INTER.POLAR>
0

>  <SCORE.INTER.REPUL>
0

>  <SCORE.INTER.ROT>
0

>  <SCORE.INTER.VDW>
-16.1313

>  <SCORE.INTER.norm>
-0.670705

>  <SCORE.INTRA>
0

>  <SCORE.INTRA.DIHEDRAL>
0

>  <SCORE.INTRA.DIHEDRAL.0>
0

>  <SCORE.INTRA.POLAR>
0

>  <SCORE.INTRA.POLAR.0>
0

>  <SCORE.INTRA.REPUL>
0

>  <SCORE.INTRA.REPUL.0>
0

>  <SCORE.INTRA.VDW>
0

>  <SCORE.INTRA.VDW.0>
0

>  <SCORE.INTRA.norm>
0

>  <SCORE.RESTR>
0

>  <SCORE.RESTR.CAVITY>
0

>  <SCORE.RESTR.norm>
0

>  <SCORE.SYSTEM>
-1.51239

>  <SCORE.SYSTEM.CONST>
0

>  <SCORE.SYSTEM.DIHEDRAL>
0.437685

>  <SCORE.SYSTEM.POLAR>
-0.503174

>  <SCORE.SYSTEM.VDW>
-0.0204412

>  <SCORE.SYSTEM.norm>
-0.0945245

>  <SCORE.heavy>
16

>  <SCORE.norm>
-0.76523

>  <enum_code>
T

>  <enum_smi>
C=C1NN2C(=O)C3CCC=C3N=C2C1C#N

>  <sha256>
39e1b0cb6462242f67993cb5678037f9b85a03408faf08abbd395fb60bce143b

>  <std_smi>
Cc1nn2c(O)c3c(nc2c1C#N)CCC3

>  <uuid>
ce65fe6b-092a-4d56-a512-ac3e7f21d90e

$$$$
ce65fe6b-092a-4d56-a512-ac3e7f21d90e
  rDOCK(R)          3D
libRbt.so/2013.1/901 2013/11/27
 17 19  0  0  0  0  0  0  0  0999 V2000
   -3.3175   30.4143    6.4832 C   0  0  0  0  0  0
   -2.5130   30.5584    5.4225 C   0  0  0  0  0  0
   -1.6581   31.6180    5.2013 N   0  0  0  0  0  0
   -1.3246   31.6492    3.8580 N   0  0  0  0  0  0
   -0.8723   32.7987    3.2332 C   0  0  0  0  0  0
   -0.5970   33.8432    3.8217 O   0  0  0  0  0  0
   -0.8994   32.6796    1.7177 C   0  0  0  0  0  0
   -0.9243   31.2368    1.2933 C   0  0  0  0  0  0
   -1.6504   30.2823    1.9483 N   0  0  0  0  0  0
   -1.7916   30.5120    3.2167 C   0  0  0  0  0  0
   -2.4978   29.6203    4.2119 C   0  0  0  0  0  0
   -1.7159   28.4099    4.4699 C   0  0  0  0  0  0
   -1.1225   27.4353    4.6894 N   0  0  0  0  0  0
   -0.1131   31.0148    0.2568 C   0  0  0  0  0  0
    0.5996   32.2607   -0.1547 C   0  0  0  0  0  0
    0.3605   33.2021    1.0308 C   0  0  0  0  0  0
   -1.9040   32.5188    5.6170 H   0  0  0  0  0  0
  1  2  2  0  0  0
  2  3  1  0  0  0
  3  4  1  0  0  0
  4  5  1  0  0  0
  5  6  2  0  0  0
  5  7  1  0  0  0
  7  8  1  0  0  0
  8  9  1  0  0  0
  9 10  2  0  0  0
 10 11  1  0  0  0
 11 12  1  0  0  0
 12 13  3  0  0  0
  8 14  2  0  0  0
 14 15  1  0  0  0
 15 16  1  0  0  0
 11  2  1  0  0  0
 10  4  1  0  0  0
 16  7  1  0  0  0
  3 17  1  0  0  0
M  END
>  <CHROM.0>
-59.88758699,69.01883681

>  <CHROM.1>
-1.23581774,31.14665488,3.18476908,2.86375129,-1.15204806,-2.84705760

>  <Name>
ce65fe6b-092a-4d56-a512-ac3e7f21d90e

>  <RI>
2.18698e+07

>  <Rbt.Current_Directory>
/data/work/jku/5V6S/work/40/8dba899c20c42488f2b1a17844994e

>  <Rbt.Executable>
rbdock ($Id: //depot/dev/client3/rdock/2013.1/src/exe/rbdock.cxx#4 $)

>  <Rbt.Library>
libRbt.so (2013.1, Build901 2013/11/27)

>  <Rbt.Parameter_File>
/rDock_2013.1_src/data/scripts/dock.prm

>  <Rbt.Receptor>
docking.prm

>  <SCORE>
-14.7456

>  <SCORE.INTER>
-13.232

>  <SCORE.INTER.CONST>
1

>  <SCORE.INTER.POLAR>
-0.739108

>  <SCORE.INTER.REPUL>
0.0443587

>  <SCORE.INTER.ROT>
0

>  <SCORE.INTER.VDW>
-16.3408

>  <SCORE.INTER.norm>
-0.826999

>  <SCORE.INTRA>
0

>  <SCORE.INTRA.DIHEDRAL>
0

>  <SCORE.INTRA.DIHEDRAL.0>
0

>  <SCORE.INTRA.POLAR>
0

>  <SCORE.INTRA.POLAR.0>
0

>  <SCORE.INTRA.REPUL>
0

>  <SCORE.INTRA.REPUL.0>
0

>  <SCORE.INTRA.VDW>
0

>  <SCORE.INTRA.VDW.0>
0

>  <SCORE.INTRA.norm>
0

>  <SCORE.RESTR>
0

>  <SCORE.RESTR.CAVITY>
0

>  <SCORE.RESTR.norm>
0

>  <SCORE.SYSTEM>
-1.51361

>  <SCORE.SYSTEM.CONST>
0

>  <SCORE.SYSTEM.DIHEDRAL>
0.401621

>  <SCORE.SYSTEM.POLAR>
-0.502997

>  <SCORE.SYSTEM.VDW>
-0.00423241

>  <SCORE.SYSTEM.norm>
-0.0946008

>  <SCORE.heavy>
16

>  <SCORE.norm>
-0.9216

>  <enum_code>
T

>  <enum_smi>
C=C1NN2C(=O)C3CCC=C3N=C2C1C#N

>  <sha256>
39e1b0cb6462242f67993cb5678037f9b85a03408faf08abbd395fb60bce143b

>  <std_smi>
Cc1nn2c(O)c3c(nc2c1C#N)CCC3

>  <uuid>
ce65fe6b-092a-4d56-a512-ac3e7f21d90e

$$$$
ce65fe6b-092a-4d56-a512-ac3e7f21d90e
  rDOCK(R)          3D
libRbt.so/2013.1/901 2013/11/27
 17 19  0  0  0  0  0  0  0  0999 V2000
   -3.3865   30.3577    6.5038 C   0  0  0  0  0  0
   -2.5717   30.5139    5.4528 C   0  0  0  0  0  0
   -1.7207   31.5800    5.2482 N   0  0  0  0  0  0
   -1.3732   31.6227    3.9088 N   0  0  0  0  0  0
   -0.9209   32.7791    3.2970 C   0  0  0  0  0  0
   -0.6580   33.8210    3.8958 O   0  0  0  0  0  0
   -0.9312   32.6706    1.7805 C   0  0  0  0  0  0
   -0.9433   31.2308    1.3457 C   0  0  0  0  0  0
   -1.6707   30.2675    1.9862 N   0  0  0  0  0  0
   -1.8267   30.4874    3.2545 C   0  0  0  0  0  0
   -2.5382   29.5846    4.2358 C   0  0  0  0  0  0
   -1.7521   28.3768    4.4936 C   0  0  0  0  0  0
   -1.1553   27.4041    4.7126 N   0  0  0  0  0  0
   -0.1199   31.0209    0.3163 C   0  0  0  0  0  0
    0.5899   32.2738   -0.0788 C   0  0  0  0  0  0
    0.3328   33.2053    1.1107 C   0  0  0  0  0  0
   -1.9762   32.4764    5.6676 H   0  0  0  0  0  0
  1  2  2  0  0  0
  2  3  1  0  0  0
  3  4  1  0  0  0
  4  5  1  0  0  0
  5  6  2  0  0  0
  5  7  1  0  0  0
  7  8  1  0  0  0
  8  9  1  0  0  0
  9 10  2  0  0  0
 10 11  1  0  0  0
 11 12  1  0  0  0
 12 13  3  0  0  0
  8 14  2  0  0  0
 14 15  1  0  0  0
 15 16  1  0  0  0
 11  2  1  0  0  0
 10  4  1  0  0  0
 16  7  1  0  0  0
  3 17  1  0  0  0
M  END
>  <CHROM.0>
-59.88758699,69.80331817

>  <CHROM.1>
-1.27430210,31.12541614,3.23301058,2.84286798,-1.14350529,-2.85900945

>  <Name>
ce65fe6b-092a-4d56-a512-ac3e7f21d90e

>  <RI>
2.18698e+07

>  <Rbt.Current_Directory>
/data/work/jku/5V6S/work/40/8dba899c20c42488f2b1a17844994e

>  <Rbt.Executable>
rbdock ($Id: //depot/dev/client3/rdock/2013.1/src/exe/rbdock.cxx#4 $)

>  <Rbt.Library>
libRbt.so (2013.1, Build901 2013/11/27)

>  <Rbt.Parameter_File>
/rDock_2013.1_src/data/scripts/dock.prm

>  <Rbt.Receptor>
docking.prm

>  <SCORE>
-14.6534

>  <SCORE.INTER>
-13.1435

>  <SCORE.INTER.CONST>
1

>  <SCORE.INTER.POLAR>
-0.666705

>  <SCORE.INTER.REPUL>
0.0651238

>  <SCORE.INTER.ROT>
0

>  <SCORE.INTER.VDW>
-16.6023

>  <SCORE.INTER.norm>
-0.821468

>  <SCORE.INTRA>
0

>  <SCORE.INTRA.DIHEDRAL>
0

>  <SCORE.INTRA.DIHEDRAL.0>
0

>  <SCORE.INTRA.POLAR>
0

>  <SCORE.INTRA.POLAR.0>
0

>  <SCORE.INTRA.REPUL>
0

>  <SCORE.INTRA.REPUL.0>
0

>  <SCORE.INTRA.VDW>
0

>  <SCORE.INTRA.VDW.0>
0

>  <SCORE.INTRA.norm>
0

>  <SCORE.RESTR>
0

>  <SCORE.RESTR.CAVITY>
0

>  <SCORE.RESTR.norm>
0

>  <SCORE.SYSTEM>
-1.50993

>  <SCORE.SYSTEM.CONST>
0

>  <SCORE.SYSTEM.DIHEDRAL>
0.471569

>  <SCORE.SYSTEM.POLAR>
-0.503218

>  <SCORE.SYSTEM.VDW>
-0.034771

>  <SCORE.SYSTEM.norm>
-0.0943704

>  <SCORE.heavy>
16

>  <SCORE.norm>
-0.915838

>  <enum_code>
T

>  <enum_smi>
C=C1NN2C(=O)C3CCC=C3N=C2C1C#N

>  <sha256>
39e1b0cb6462242f67993cb5678037f9b85a03408faf08abbd395fb60bce143b

>  <std_smi>
Cc1nn2c(O)c3c(nc2c1C#N)CCC3

>  <uuid>
ce65fe6b-092a-4d56-a512-ac3e7f21d90e

$$$$
5cddb777-44eb-4f12-b088-184dab734f8f
  rDOCK(R)          3D
libRbt.so/2013.1/901 2013/11/27
 18 20  0  0  0  0  0  0  0  0999 V2000
   -8.1452   27.0270    4.2045 C   0  0  0  0  0  0
   -6.9133   26.6199    4.5241 C   0  0  0  0  0  0
   -6.3810   25.3557    4.3217 N   0  0  0  0  0  0
   -5.0073   25.4517    4.5731 N   0  0  0  0  0  0
   -4.1312   24.3865    4.4492 C   0  0  0  0  0  0
   -4.4591   23.2662    4.0565 O   0  0  0  0  0  0
   -2.6701   24.7716    4.7172 C   0  0  0  0  0  0
   -2.5284   25.9491    5.6604 C   0  0  0  0  0  0
   -3.4586   26.9509    5.6070 N   0  0  0  0  0  0
   -4.7164   26.6873    5.1217 C   0  0  0  0  0  0
   -5.8443   27.4258    5.1150 C   0  0  0  0  0  0
   -5.9731   28.7413    5.6071 C   0  0  0  0  0  0
   -6.0626   29.8233    6.0180 N   0  0  0  0  0  0
   -1.4787   25.7916    6.4712 C   0  0  0  0  0  0
   -0.8082   24.4734    6.2421 C   0  0  0  0  0  0
   -1.8428   23.6991    5.4185 C   0  0  0  0  0  0
   -6.6267   24.9010    3.4431 H   0  0  0  0  0  0
   -3.3594   27.7234    6.2598 H   0  0  0  0  0  0
  1  2  2  0  0  0
  2  3  1  0  0  0
  3  4  1  0  0  0
  4  5  1  0  0  0
  5  6  2  0  0  0
  5  7  1  0  0  0
  7  8  1  0  0  0
  8  9  1  0  0  0
  9 10  1  0  0  0
 10 11  2  0  0  0
 11 12  1  0  0  0
 12 13  3  0  0  0
  8 14  2  0  0  0
 14 15  1  0  0  0
 15 16  1  0  0  0
 11  2  1  0  0  0
 10  4  1  0  0  0
 16  7  1  0  0  0
  3 17  1  0  0  0
  9 18  1  0  0  0
M  END
>  <CHROM.0>
-59.88758699,69.41269656

>  <CHROM.1>
-4.39414287,25.97585647,5.11775599,2.62778306,-0.34837110,0.37561135

>  <Name>
5cddb777-44eb-4f12-b088-184dab734f8f

>  <RI>
2.94106e+07

>  <Rbt.Current_Directory>
/data/work/jku/5V6S/work/40/8dba899c20c42488f2b1a17844994e

>  <Rbt.Executable>
rbdock ($Id: //depot/dev/client3/rdock/2013.1/src/exe/rbdock.cxx#4 $)

>  <Rbt.Library>
libRbt.so (2013.1, Build901 2013/11/27)

>  <Rbt.Parameter_File>
/rDock_2013.1_src/data/scripts/dock.prm

>  <Rbt.Receptor>
docking.prm

>  <SCORE>
-12.3251

>  <SCORE.INTER>
-10.8126

>  <SCORE.INTER.CONST>
1

>  <SCORE.INTER.POLAR>
0

>  <SCORE.INTER.REPUL>
0

>  <SCORE.INTER.ROT>
0

>  <SCORE.INTER.VDW>
-16.2126

>  <SCORE.INTER.norm>
-0.675789

>  <SCORE.INTRA>
0

>  <SCORE.INTRA.DIHEDRAL>
0

>  <SCORE.INTRA.DIHEDRAL.0>
0

>  <SCORE.INTRA.POLAR>
0

>  <SCORE.INTRA.POLAR.0>
0

>  <SCORE.INTRA.REPUL>
0

>  <SCORE.INTRA.REPUL.0>
0

>  <SCORE.INTRA.VDW>
0

>  <SCORE.INTRA.VDW.0>
0

>  <SCORE.INTRA.norm>
0

>  <SCORE.RESTR>
0

>  <SCORE.RESTR.CAVITY>
0

>  <SCORE.RESTR.norm>
0

>  <SCORE.SYSTEM>
-1.51248

>  <SCORE.SYSTEM.CONST>
0

>  <SCORE.SYSTEM.DIHEDRAL>
0.43607

>  <SCORE.SYSTEM.POLAR>
-0.50317

>  <SCORE.SYSTEM.VDW>
-0.0197376

>  <SCORE.SYSTEM.norm>
-0.0945299

>  <SCORE.heavy>
16

>  <SCORE.norm>
-0.770319

>  <enum_code>
T

>  <enum_smi>
C=C1NN2C(=O)C3CCC=C3NC2=C1C#N

>  <sha256>
39e1b0cb6462242f67993cb5678037f9b85a03408faf08abbd395fb60bce143b

>  <std_smi>
Cc1nn2c(O)c3c(nc2c1C#N)CCC3

>  <uuid>
5cddb777-44eb-4f12-b088-184dab734f8f

$$$$
5cddb777-44eb-4f12-b088-184dab734f8f
  rDOCK(R)          3D
libRbt.so/2013.1/901 2013/11/27
 18 20  0  0  0  0  0  0  0  0999 V2000
   -2.0980   26.7288    5.1637 C   0  0  0  0  0  0
   -1.7327   27.7708    4.4111 C   0  0  0  0  0  0
   -1.0598   27.7211    3.1998 N   0  0  0  0  0  0
   -1.1093   29.0109    2.6581 N   0  0  0  0  0  0
   -0.5593   29.3468    1.4324 C   0  0  0  0  0  0
   -0.0205   28.5397    0.6741 O   0  0  0  0  0  0
   -0.8081   30.8090    1.0389 C   0  0  0  0  0  0
   -0.9744   31.7267    2.2331 C   0  0  0  0  0  0
   -1.5997   31.2457    3.3509 N   0  0  0  0  0  0
   -1.6133   29.8940    3.5952 C   0  0  0  0  0  0
   -1.9992   29.1852    4.6752 C   0  0  0  0  0  0
   -2.5496   29.7182    5.8594 C   0  0  0  0  0  0
   -3.0000   30.1730    6.8278 N   0  0  0  0  0  0
   -0.4129   32.9172    2.0061 C   0  0  0  0  0  0
    0.2624   32.9536    0.6710 C   0  0  0  0  0  0
    0.3378   31.4733    0.2826 C   0  0  0  0  0  0
   -1.3380   26.9759    2.5625 H   0  0  0  0  0  0
   -1.6854   31.8683    4.1495 H   0  0  0  0  0  0
  1  2  2  0  0  0
  2  3  1  0  0  0
  3  4  1  0  0  0
  4  5  1  0  0  0
  5  6  2  0  0  0
  5  7  1  0  0  0
  7  8  1  0  0  0
  8  9  1  0  0  0
  9 10  1  0  0  0
 10 11  2  0  0  0
 11 12  1  0  0  0
 12 13  3  0  0  0
  8 14  2  0  0  0
 14 15  1  0  0  0
 15 16  1  0  0  0
 11  2  1  0  0  0
 10  4  1  0  0  0
 16  7  1  0  0  0
  3 17  1  0  0  0
  9 18  1  0  0  0
M  END
>  <CHROM.0>
-59.88758699,68.40955094

>  <CHROM.1>
-1.15922162,29.93446210,2.96108370,-2.56638120,1.11940974,0.00247080

>  <Name>
5cddb777-44eb-4f12-b088-184dab734f8f

>  <RI>
2.94106e+07

>  <Rbt.Current_Directory>
/data/work/jku/5V6S/work/40/8dba899c20c42488f2b1a17844994e

>  <Rbt.Executable>
rbdock ($Id: //depot/dev/client3/rdock/2013.1/src/exe/rbdock.cxx#4 $)

>  <Rbt.Library>
libRbt.so (2013.1, Build901 2013/11/27)

>  <Rbt.Parameter_File>
/rDock_2013.1_src/data/scripts/dock.prm

>  <Rbt.Receptor>
docking.prm

>  <SCORE>
-13.7296

>  <SCORE.INTER>
-12.2306

>  <SCORE.INTER.CONST>
1

>  <SCORE.INTER.POLAR>
0

>  <SCORE.INTER.REPUL>
0.0397865

>  <SCORE.INTER.ROT>
0

>  <SCORE.INTER.VDW>
-17.8295

>  <SCORE.INTER.norm>
-0.76441

>  <SCORE.INTRA>
0

>  <SCORE.INTRA.DIHEDRAL>
0

>  <SCORE.INTRA.DIHEDRAL.0>
0

>  <SCORE.INTRA.POLAR>
0

>  <SCORE.INTRA.POLAR.0>
0

>  <SCORE.INTRA.REPUL>
0

>  <SCORE.INTRA.REPUL.0>
0

>  <SCORE.INTRA.VDW>
0

>  <SCORE.INTRA.VDW.0>
0

>  <SCORE.INTRA.norm>
0

>  <SCORE.RESTR>
0.0134622

>  <SCORE.RESTR.CAVITY>
0.0134622

>  <SCORE.RESTR.norm>
0.000841384

>  <SCORE.SYSTEM>
-1.51248

>  <SCORE.SYSTEM.CONST>
0

>  <SCORE.SYSTEM.DIHEDRAL>
0.351021

>  <SCORE.SYSTEM.POLAR>
-0.502483

>  <SCORE.SYSTEM.VDW>
0.0204526

>  <SCORE.SYSTEM.norm>
-0.09453

>  <SCORE.heavy>
16

>  <SCORE.norm>
-0.858098

>  <enum_code>
T

>  <enum_smi>
C=C1NN2C(=O)C3CCC=C3NC2=C1C#N

>  <sha256>
39e1b0cb6462242f67993cb5678037f9b85a03408faf08abbd395fb60bce143b

>  <std_smi>
Cc1nn2c(O)c3c(nc2c1C#N)CCC3

>  <uuid>
5cddb777-44eb-4f12-b088-184dab734f8f

$$$$
5cddb777-44eb-4f12-b088-184dab734f8f
  rDOCK(R)          3D
libRbt.so/2013.1/901 2013/11/27
 18 20  0  0  0  0  0  0  0  0999 V2000
   -0.1151   32.6122    0.4216 C   0  0  0  0  0  0
   -0.7228   31.7116    1.1995 C   0  0  0  0  0  0
   -1.2448   30.4908    0.7997 N   0  0  0  0  0  0
   -1.5542   29.7831    1.9671 N   0  0  0  0  0  0
   -2.0785   28.5014    1.9677 C   0  0  0  0  0  0
   -2.2754   27.8366    0.9499 O   0  0  0  0  0  0
   -2.2648   27.9255    3.3779 C   0  0  0  0  0  0
   -2.4909   28.9913    4.4310 C   0  0  0  0  0  0
   -1.8414   30.1889    4.3054 N   0  0  0  0  0  0
   -1.4286   30.6132    3.0659 C   0  0  0  0  0  0
   -0.9319   31.7939    2.6454 C   0  0  0  0  0  0
   -0.6738   32.9178    3.4578 C   0  0  0  0  0  0
   -0.4685   33.8342    4.1400 N   0  0  0  0  0  0
   -3.3739   28.5829    5.3461 C   0  0  0  0  0  0
   -3.9148   27.2279    5.0125 C   0  0  0  0  0  0
   -3.4941   27.0393    3.5512 C   0  0  0  0  0  0
   -0.6974   29.9717    0.1144 H   0  0  0  0  0  0
   -2.0196   30.8994    5.0099 H   0  0  0  0  0  0
  1  2  2  0  0  0
  2  3  1  0  0  0
  3  4  1  0  0  0
  4  5  1  0  0  0
  5  6  2  0  0  0
  5  7  1  0  0  0
  7  8  1  0  0  0
  8  9  1  0  0  0
  9 10  1  0  0  0
 10 11  2  0  0  0
 11 12  1  0  0  0
 12 13  3  0  0  0
  8 14  2  0  0  0
 14 15  1  0  0  0
 15 16  1  0  0  0
 11  2  1  0  0  0
 10  4  1  0  0  0
 16  7  1  0  0  0
  3 17  1  0  0  0
  9 18  1  0  0  0
M  END
>  <CHROM.0>
-59.88758699,68.95215480

>  <CHROM.1>
-1.81892449,29.96088961,2.88671672,-0.16616675,-1.09223678,-2.11385845

>  <Name>
5cddb777-44eb-4f12-b088-184dab734f8f

>  <RI>
2.94106e+07

>  <Rbt.Current_Directory>
/data/work/jku/5V6S/work/40/8dba899c20c42488f2b1a17844994e

>  <Rbt.Executable>
rbdock ($Id: //depot/dev/client3/rdock/2013.1/src/exe/rbdock.cxx#4 $)

>  <Rbt.Library>
libRbt.so (2013.1, Build901 2013/11/27)

>  <Rbt.Parameter_File>
/rDock_2013.1_src/data/scripts/dock.prm

>  <Rbt.Receptor>
docking.prm

>  <SCORE>
-14.3757

>  <SCORE.INTER>
-12.862

>  <SCORE.INTER.CONST>
1

>  <SCORE.INTER.POLAR>
-0.935414

>  <SCORE.INTER.REPUL>
0

>  <SCORE.INTER.ROT>
0

>  <SCORE.INTER.VDW>
-15.0816

>  <SCORE.INTER.norm>
-0.803875

>  <SCORE.INTRA>
0

>  <SCORE.INTRA.DIHEDRAL>
0

>  <SCORE.INTRA.DIHEDRAL.0>
0

>  <SCORE.INTRA.POLAR>
0

>  <SCORE.INTRA.POLAR.0>
0

>  <SCORE.INTRA.REPUL>
0

>  <SCORE.INTRA.REPUL.0>
0

>  <SCORE.INTRA.VDW>
0

>  <SCORE.INTRA.VDW.0>
0

>  <SCORE.INTRA.norm>
0

>  <SCORE.RESTR>
0

>  <SCORE.RESTR.CAVITY>
0

>  <SCORE.RESTR.norm>
0

>  <SCORE.SYSTEM>
-1.51366

>  <SCORE.SYSTEM.CONST>
0

>  <SCORE.SYSTEM.DIHEDRAL>
0.395924

>  <SCORE.SYSTEM.POLAR>
-0.502956

>  <SCORE.SYSTEM.VDW>
-0.00157244

>  <SCORE.SYSTEM.norm>
-0.0946038

>  <SCORE.heavy>
16

>  <SCORE.norm>
-0.898479

>  <enum_code>
T

>  <enum_smi>
C=C1NN2C(=O)C3CCC=C3NC2=C1C#N

>  <sha256>
39e1b0cb6462242f67993cb5678037f9b85a03408faf08abbd395fb60bce143b

>  <std_smi>
Cc1nn2c(O)c3c(nc2c1C#N)CCC3

>  <uuid>
5cddb777-44eb-4f12-b088-184dab734f8f

$$$$
5cddb777-44eb-4f12-b088-184dab734f8f
  rDOCK(R)          3D
libRbt.so/2013.1/901 2013/11/27
 18 20  0  0  0  0  0  0  0  0999 V2000
   -1.7925   21.9440    4.0421 C   0  0  0  0  0  0
   -2.7654   22.8566    4.1209 C   0  0  0  0  0  0
   -3.8765   22.9548    3.2973 N   0  0  0  0  0  0
   -4.7372   23.8856    3.8909 N   0  0  0  0  0  0
   -5.9703   24.2310    3.3639 C   0  0  0  0  0  0
   -6.4565   23.7194    2.3546 O   0  0  0  0  0  0
   -6.7458   25.2229    4.2411 C   0  0  0  0  0  0
   -5.8447   26.1077    5.0785 C   0  0  0  0  0  0
   -4.6826   25.5825    5.5738 N   0  0  0  0  0  0
   -4.0963   24.5116    4.9442 C   0  0  0  0  0  0
   -2.8960   23.9220    5.1155 C   0  0  0  0  0  0
   -1.9289   24.2815    6.0773 C   0  0  0  0  0  0
   -1.1430   24.5910    6.8736 N   0  0  0  0  0  0
   -6.3373   27.3458    5.1698 C   0  0  0  0  0  0
   -7.5899   27.4930    4.3641 C   0  0  0  0  0  0
   -7.5741   26.2472    3.4721 C   0  0  0  0  0  0
   -4.3145   22.0747    3.0282 H   0  0  0  0  0  0
   -4.0806   26.1953    6.1169 H   0  0  0  0  0  0
  1  2  2  0  0  0
  2  3  1  0  0  0
  3  4  1  0  0  0
  4  5  1  0  0  0
  5  6  2  0  0  0
  5  7  1  0  0  0
  7  8  1  0  0  0
  8  9  1  0  0  0
  9 10  1  0  0  0
 10 11  2  0  0  0
 11 12  1  0  0  0
 12 13  3  0  0  0
  8 14  2  0  0  0
 14 15  1  0  0  0
 15 16  1  0  0  0
 11  2  1  0  0  0
 10  4  1  0  0  0
 16  7  1  0  0  0
  3 17  1  0  0  0
  9 18  1  0  0  0
M  END
>  <CHROM.0>
-59.88758699,69.00710518

>  <CHROM.1>
-4.68879203,24.67258423,4.46150929,0.27731146,0.49839975,-2.44026714

>  <Name>
5cddb777-44eb-4f12-b088-184dab734f8f

>  <RI>
2.94106e+07

>  <Rbt.Current_Directory>
/data/work/jku/5V6S/work/40/8dba899c20c42488f2b1a17844994e

>  <Rbt.Executable>
rbdock ($Id: //depot/dev/client3/rdock/2013.1/src/exe/rbdock.cxx#4 $)

>  <Rbt.Library>
libRbt.so (2013.1, Build901 2013/11/27)

>  <Rbt.Parameter_File>
/rDock_2013.1_src/data/scripts/dock.prm

>  <Rbt.Receptor>
docking.prm

>  <SCORE>
-13.3595

>  <SCORE.INTER>
-11.8459

>  <SCORE.INTER.CONST>
1

>  <SCORE.INTER.POLAR>
0

>  <SCORE.INTER.REPUL>
0

>  <SCORE.INTER.ROT>
0

>  <SCORE.INTER.VDW>
-17.2459

>  <SCORE.INTER.norm>
-0.740369

>  <SCORE.INTRA>
0

>  <SCORE.INTRA.DIHEDRAL>
0

>  <SCORE.INTRA.DIHEDRAL.0>
0

>  <SCORE.INTRA.POLAR>
0

>  <SCORE.INTRA.POLAR.0>
0

>  <SCORE.INTRA.REPUL>
0

>  <SCORE.INTRA.REPUL.0>
0

>  <SCORE.INTRA.VDW>
0

>  <SCORE.INTRA.VDW.0>
0

>  <SCORE.INTRA.norm>
0

>  <SCORE.RESTR>
0

>  <SCORE.RESTR.CAVITY>
0

>  <SCORE.RESTR.norm>
0

>  <SCORE.SYSTEM>
-1.51362

>  <SCORE.SYSTEM.CONST>
0

>  <SCORE.SYSTEM.DIHEDRAL>
0.400616

>  <SCORE.SYSTEM.POLAR>
-0.50299

>  <SCORE.SYSTEM.VDW>
-0.00376517

>  <SCORE.SYSTEM.norm>
-0.0946015

>  <SCORE.heavy>
16

>  <SCORE.norm>
-0.834971

>  <enum_code>
T

>  <enum_smi>
C=C1NN2C(=O)C3CCC=C3NC2=C1C#N

>  <sha256>
39e1b0cb6462242f67993cb5678037f9b85a03408faf08abbd395fb60bce143b

>  <std_smi>
Cc1nn2c(O)c3c(nc2c1C#N)CCC3

>  <uuid>
5cddb777-44eb-4f12-b088-184dab734f8f

$$$$
5cddb777-44eb-4f12-b088-184dab734f8f
  rDOCK(R)          3D
libRbt.so/2013.1/901 2013/11/27
 18 20  0  0  0  0  0  0  0  0999 V2000
   -0.1296   32.6261    0.4359 C   0  0  0  0  0  0
   -0.7338   31.7223    1.2129 C   0  0  0  0  0  0
   -1.2600   30.5044    0.8100 N   0  0  0  0  0  0
   -1.5632   29.7910    1.9756 N   0  0  0  0  0  0
   -2.0893   28.5100    1.9727 C   0  0  0  0  0  0
   -2.2934   27.8508    0.9527 O   0  0  0  0  0  0
   -2.2677   27.9271    3.3810 C   0  0  0  0  0  0
   -2.4858   28.9877    4.4410 C   0  0  0  0  0  0
   -1.8354   30.1850    4.3177 N   0  0  0  0  0  0
   -1.4296   30.6152    3.0778 C   0  0  0  0  0  0
   -0.9338   31.7974    2.6605 C   0  0  0  0  0  0
   -0.6691   32.9166    3.4771 C   0  0  0  0  0  0
   -0.4583   33.8292    4.1628 N   0  0  0  0  0  0
   -3.3637   28.5757    5.3594 C   0  0  0  0  0  0
   -3.9086   27.2233    5.0221 C   0  0  0  0  0  0
   -3.4972   27.0418    3.5572 C   0  0  0  0  0  0
   -0.7175   29.9881    0.1186 H   0  0  0  0  0  0
   -2.0081   30.8921    5.0269 H   0  0  0  0  0  0
  1  2  2  0  0  0
  2  3  1  0  0  0
  3  4  1  0  0  0
  4  5  1  0  0  0
  5  6  2  0  0  0
  5  7  1  0  0  0
  7  8  1  0  0  0
  8  9  1  0  0  0
  9 10  1  0  0  0
 10 11  2  0  0  0
 11 12  1  0  0  0
 12 13  3  0  0  0
  8 14  2  0  0  0
 14 15  1  0  0  0
 15 16  1  0  0  0
 11  2  1  0  0  0
 10  4  1  0  0  0
 16  7  1  0  0  0
  3 17  1  0  0  0
  9 18  1  0  0  0
M  END
>  <CHROM.0>
-59.88758699,69.16183809

>  <CHROM.1>
-1.82195994,29.96437728,2.89770078,-0.15303523,-1.09416292,-2.09697443

>  <Name>
5cddb777-44eb-4f12-b088-184dab734f8f

>  <RI>
2.94106e+07

>  <Rbt.Current_Directory>
/data/work/jku/5V6S/work/40/8dba899c20c42488f2b1a17844994e

>  <Rbt.Executable>
rbdock ($Id: //depot/dev/client3/rdock/2013.1/src/exe/rbdock.cxx#4 $)

>  <Rbt.Library>
libRbt.so (2013.1, Build901 2013/11/27)

>  <Rbt.Parameter_File>
/rDock_2013.1_src/data/scripts/dock.prm

>  <Rbt.Receptor>
docking.prm

>  <SCORE>
-14.3701

>  <SCORE.INTER>
-12.8567

>  <SCORE.INTER.CONST>
1

>  <SCORE.INTER.POLAR>
-0.935414

>  <SCORE.INTER.REPUL>
0

>  <SCORE.INTER.ROT>
0

>  <SCORE.INTER.VDW>
-15.0763

>  <SCORE.INTER.norm>
-0.803544

>  <SCORE.INTRA>
0

>  <SCORE.INTRA.DIHEDRAL>
0

>  <SCORE.INTRA.DIHEDRAL.0>
0

>  <SCORE.INTRA.POLAR>
0

>  <SCORE.INTRA.POLAR.0>
0

>  <SCORE.INTRA.REPUL>
0

>  <SCORE.INTRA.REPUL.0>
0

>  <SCORE.INTRA.VDW>
0

>  <SCORE.INTRA.VDW.0>
0

>  <SCORE.INTRA.norm>
0

>  <SCORE.RESTR>
0

>  <SCORE.RESTR.CAVITY>
0

>  <SCORE.RESTR.norm>
0

>  <SCORE.SYSTEM>
-1.51337

>  <SCORE.SYSTEM.CONST>
0

>  <SCORE.SYSTEM.DIHEDRAL>
0.413972

>  <SCORE.SYSTEM.POLAR>
-0.503074

>  <SCORE.SYSTEM.VDW>
-0.00990261

>  <SCORE.SYSTEM.norm>
-0.0945856

>  <SCORE.heavy>
16

>  <SCORE.norm>
-0.89813

>  <enum_code>
T

>  <enum_smi>
C=C1NN2C(=O)C3CCC=C3NC2=C1C#N

>  <sha256>
39e1b0cb6462242f67993cb5678037f9b85a03408faf08abbd395fb60bce143b

>  <std_smi>
Cc1nn2c(O)c3c(nc2c1C#N)CCC3

>  <uuid>
5cddb777-44eb-4f12-b088-184dab734f8f

$$$$
a50edc1e-3c8a-4b2b-abb6-21bafb8f7440
  rDOCK(R)          3D
libRbt.so/2013.1/901 2013/11/27
 17 19  0  0  0  0  0  0  0  0999 V2000
   -0.0339   27.5521    0.9584 C   0  0  0  0  0  0
   -0.7003   28.6004    1.4509 C   0  0  0  0  0  0
   -0.6052   29.9184    1.0210 N   0  0  0  0  0  0
   -1.6429   30.6198    1.6470 N   0  0  0  0  0  0
   -1.9693   31.9230    1.3545 C   0  0  0  0  0  0
   -1.3703   32.6475    0.5653 O   0  0  0  0  0  0
   -3.2601   32.3129    2.0159 C   0  0  0  0  0  0
   -3.5813   31.5000    3.2381 C   0  0  0  0  0  0
   -3.1704   30.2921    3.4682 N   0  0  0  0  0  0
   -2.2448   29.8129    2.5835 C   0  0  0  0  0  0
   -1.7054   28.5833    2.5166 C   0  0  0  0  0  0
   -2.0359   27.4808    3.3317 C   0  0  0  0  0  0
   -2.2889   26.5478    3.9756 N   0  0  0  0  0  0
   -4.4193   32.2621    4.2262 C   0  0  0  0  0  0
   -4.5192   33.6359    3.5617 C   0  0  0  0  0  0
   -3.3351   33.7158    2.5943 C   0  0  0  0  0  0
   -0.5326   30.0532    0.0128 H   0  0  0  0  0  0
  1  2  2  0  0  0
  2  3  1  0  0  0
  3  4  1  0  0  0
  4  5  1  0  0  0
  5  6  2  0  0  0
  5  7  1  0  0  0
  7  8  1  0  0  0
  8  9  2  0  0  0
  9 10  1  0  0  0
 10 11  2  0  0  0
 11 12  1  0  0  0
 12 13  3  0  0  0
  8 14  1  0  0  0
 14 15  1  0  0  0
 15 16  1  0  0  0
 11  2  1  0  0  0
 10  4  1  0  0  0
 16  7  1  0  0  0
  3 17  1  0  0  0
M  END
>  <CHROM.0>
-59.88758699,-62.44175146

>  <CHROM.1>
-2.29883245,30.51859009,2.38005205,-0.92050517,0.79895571,-0.38307106

>  <Name>
a50edc1e-3c8a-4b2b-abb6-21bafb8f7440

>  <RI>
3.09261e+07

>  <Rbt.Current_Directory>
/data/work/jku/5V6S/work/40/8dba899c20c42488f2b1a17844994e

>  <Rbt.Executable>
rbdock ($Id: //depot/dev/client3/rdock/2013.1/src/exe/rbdock.cxx#4 $)

>  <Rbt.Library>
libRbt.so (2013.1, Build901 2013/11/27)

>  <Rbt.Parameter_File>
/rDock_2013.1_src/data/scripts/dock.prm

>  <Rbt.Receptor>
docking.prm

>  <SCORE>
-4.76326

>  <SCORE.INTER>
-6.28274

>  <SCORE.INTER.CONST>
1

>  <SCORE.INTER.POLAR>
-0.935414

>  <SCORE.INTER.REPUL>
0

>  <SCORE.INTER.ROT>
0

>  <SCORE.INTER.VDW>
-8.50233

>  <SCORE.INTER.norm>
-0.392671

>  <SCORE.INTRA>
0

>  <SCORE.INTRA.DIHEDRAL>
0

>  <SCORE.INTRA.DIHEDRAL.0>
0

>  <SCORE.INTRA.POLAR>
0

>  <SCORE.INTRA.POLAR.0>
0

>  <SCORE.INTRA.REPUL>
0

>  <SCORE.INTRA.REPUL.0>
0

>  <SCORE.INTRA.VDW>
0

>  <SCORE.INTRA.VDW.0>
0

>  <SCORE.INTRA.norm>
0

>  <SCORE.RESTR>
0.49812

>  <SCORE.RESTR.CAVITY>
0.49812

>  <SCORE.RESTR.norm>
0.0311325

>  <SCORE.SYSTEM>
1.02136

>  <SCORE.SYSTEM.CONST>
0

>  <SCORE.SYSTEM.DIHEDRAL>
0.0370133

>  <SCORE.SYSTEM.REPUL>
0.14

>  <SCORE.SYSTEM.VDW>
0.302848

>  <SCORE.SYSTEM.norm>
0.0638348

>  <SCORE.heavy>
16

>  <SCORE.norm>
-0.297704

>  <enum_code>
T

>  <enum_smi>
C=C1NN2C(=O)C3CCCC3=NC2=C1C#N

>  <sha256>
39e1b0cb6462242f67993cb5678037f9b85a03408faf08abbd395fb60bce143b

>  <std_smi>
Cc1nn2c(O)c3c(nc2c1C#N)CCC3

>  <uuid>
a50edc1e-3c8a-4b2b-abb6-21bafb8f7440

$$$$
a50edc1e-3c8a-4b2b-abb6-21bafb8f7440
  rDOCK(R)          3D
libRbt.so/2013.1/901 2013/11/27
 17 19  0  0  0  0  0  0  0  0999 V2000
   -8.6189   27.9999    4.0799 C   0  0  0  0  0  0
   -7.7170   27.0279    4.2459 C   0  0  0  0  0  0
   -7.8263   25.7134    3.8087 N   0  0  0  0  0  0
   -6.5673   25.1266    3.9853 N   0  0  0  0  0  0
   -6.2377   23.8729    3.5269 C   0  0  0  0  0  0
   -7.0039   23.0953    2.9658 O   0  0  0  0  0  0
   -4.7628   23.6240    3.6627 C   0  0  0  0  0  0
   -4.1071   24.4521    4.7313 C   0  0  0  0  0  0
   -4.5279   25.6022    5.1567 N   0  0  0  0  0  0
   -5.7536   25.9844    4.6871 C   0  0  0  0  0  0
   -6.4028   27.1454    4.8825 C   0  0  0  0  0  0
   -5.9145   28.2676    5.5835 C   0  0  0  0  0  0
   -5.5427   29.2148    6.1434 N   0  0  0  0  0  0
   -2.8967   23.7775    5.3136 C   0  0  0  0  0  0
   -2.9039   22.4329    4.5851 C   0  0  0  0  0  0
   -4.3424   22.2313    4.1009 C   0  0  0  0  0  0
   -8.2432   25.5844    2.8871 H   0  0  0  0  0  0
  1  2  2  0  0  0
  2  3  1  0  0  0
  3  4  1  0  0  0
  4  5  1  0  0  0
  5  6  2  0  0  0
  5  7  1  0  0  0
  7  8  1  0  0  0
  8  9  2  0  0  0
  9 10  1  0  0  0
 10 11  2  0  0  0
 11 12  1  0  0  0
 12 13  3  0  0  0
  8 14  1  0  0  0
 14 15  1  0  0  0
 15 16  1  0  0  0
 11  2  1  0  0  0
 10  4  1  0  0  0
 16  7  1  0  0  0
  3 17  1  0  0  0
M  END
>  <CHROM.0>
-59.88758699,68.86129591

>  <CHROM.1>
-5.70517218,25.29221487,4.44053488,2.17677984,-0.41692624,0.39167586

>  <Name>
a50edc1e-3c8a-4b2b-abb6-21bafb8f7440

>  <RI>
3.09261e+07

>  <Rbt.Current_Directory>
/data/work/jku/5V6S/work/40/8dba899c20c42488f2b1a17844994e

>  <Rbt.Executable>
rbdock ($Id: //depot/dev/client3/rdock/2013.1/src/exe/rbdock.cxx#4 $)

>  <Rbt.Library>
libRbt.so (2013.1, Build901 2013/11/27)

>  <Rbt.Parameter_File>
/rDock_2013.1_src/data/scripts/dock.prm

>  <Rbt.Receptor>
docking.prm

>  <SCORE>
-15.2429

>  <SCORE.INTER>
-13.7292

>  <SCORE.INTER.CONST>
1

>  <SCORE.INTER.POLAR>
-0.780351

>  <SCORE.INTER.REPUL>
0.00949811

>  <SCORE.INTER.ROT>
0

>  <SCORE.INTER.VDW>
-16.5235

>  <SCORE.INTER.norm>
-0.858078

>  <SCORE.INTRA>
0

>  <SCORE.INTRA.DIHEDRAL>
0

>  <SCORE.INTRA.DIHEDRAL.0>
0

>  <SCORE.INTRA.POLAR>
0

>  <SCORE.INTRA.POLAR.0>
0

>  <SCORE.INTRA.REPUL>
0

>  <SCORE.INTRA.REPUL.0>
0

>  <SCORE.INTRA.VDW>
0

>  <SCORE.INTRA.VDW.0>
0

>  <SCORE.INTRA.norm>
0

>  <SCORE.RESTR>
0

>  <SCORE.RESTR.CAVITY>
0

>  <SCORE.RESTR.norm>
0

>  <SCORE.SYSTEM>
-1.51366

>  <SCORE.SYSTEM.CONST>
0

>  <SCORE.SYSTEM.DIHEDRAL>
0.388223

>  <SCORE.SYSTEM.POLAR>
-0.502893

>  <SCORE.SYSTEM.VDW>
0.00206833

>  <SCORE.SYSTEM.norm>
-0.0946036

>  <SCORE.heavy>
16

>  <SCORE.norm>
-0.952681

>  <enum_code>
T

>  <enum_smi>
C=C1NN2C(=O)C3CCCC3=NC2=C1C#N

>  <sha256>
39e1b0cb6462242f67993cb5678037f9b85a03408faf08abbd395fb60bce143b

>  <std_smi>
Cc1nn2c(O)c3c(nc2c1C#N)CCC3

>  <uuid>
a50edc1e-3c8a-4b2b-abb6-21bafb8f7440

$$$$
a50edc1e-3c8a-4b2b-abb6-21bafb8f7440
  rDOCK(R)          3D
libRbt.so/2013.1/901 2013/11/27
 17 19  0  0  0  0  0  0  0  0999 V2000
   -8.4194   24.6104    4.2274 C   0  0  0  0  0  0
   -7.0874   24.5031    4.2204 C   0  0  0  0  0  0
   -6.1873   25.3195    4.8943 N   0  0  0  0  0  0
   -4.9350   24.7009    4.7970 N   0  0  0  0  0  0
   -3.8158   25.1316    5.4697 C   0  0  0  0  0  0
   -3.7530   26.1284    6.1832 O   0  0  0  0  0  0
   -2.6996   24.1345    5.3450 C   0  0  0  0  0  0
   -2.8035   23.2618    4.1263 C   0  0  0  0  0  0
   -3.9022   22.9607    3.5074 N   0  0  0  0  0  0
   -5.0129   23.6371    3.9294 C   0  0  0  0  0  0
   -6.2900   23.4794    3.5403 C   0  0  0  0  0  0
   -6.7736   22.5139    2.6330 C   0  0  0  0  0  0
   -7.2105   21.7267    1.8994 N   0  0  0  0  0  0
   -1.4597   22.7877    3.6477 C   0  0  0  0  0  0
   -0.5115   23.5032    4.6109 C   0  0  0  0  0  0
   -1.2998   24.6954    5.1598 C   0  0  0  0  0  0
   -6.4624   25.6040    5.8341 H   0  0  0  0  0  0
  1  2  2  0  0  0
  2  3  1  0  0  0
  3  4  1  0  0  0
  4  5  1  0  0  0
  5  6  2  0  0  0
  5  7  1  0  0  0
  7  8  1  0  0  0
  8  9  2  0  0  0
  9 10  1  0  0  0
 10 11  2  0  0  0
 11 12  1  0  0  0
 12 13  3  0  0  0
  8 14  1  0  0  0
 14 15  1  0  0  0
 15 16  1  0  0  0
 11  2  1  0  0  0
 10  4  1  0  0  0
 16  7  1  0  0  0
  3 17  1  0  0  0
M  END
>  <CHROM.0>
-59.88758699,69.19231390

>  <CHROM.1>
-4.47597254,23.98119598,4.29767508,2.91966038,0.13380992,-2.43866610

>  <Name>
a50edc1e-3c8a-4b2b-abb6-21bafb8f7440

>  <RI>
3.09261e+07

>  <Rbt.Current_Directory>
/data/work/jku/5V6S/work/40/8dba899c20c42488f2b1a17844994e

>  <Rbt.Executable>
rbdock ($Id: //depot/dev/client3/rdock/2013.1/src/exe/rbdock.cxx#4 $)

>  <Rbt.Library>
libRbt.so (2013.1, Build901 2013/11/27)

>  <Rbt.Parameter_File>
/rDock_2013.1_src/data/scripts/dock.prm

>  <Rbt.Receptor>
docking.prm

>  <SCORE>
-11.7997

>  <SCORE.INTER>
-10.2864

>  <SCORE.INTER.CONST>
1

>  <SCORE.INTER.POLAR>
-0.344447

>  <SCORE.INTER.REPUL>
0

>  <SCORE.INTER.ROT>
0

>  <SCORE.INTER.VDW>
-14.5153

>  <SCORE.INTER.norm>
-0.642901

>  <SCORE.INTRA>
0

>  <SCORE.INTRA.DIHEDRAL>
0

>  <SCORE.INTRA.DIHEDRAL.0>
0

>  <SCORE.INTRA.POLAR>
0

>  <SCORE.INTRA.POLAR.0>
0

>  <SCORE.INTRA.REPUL>
0

>  <SCORE.INTRA.REPUL.0>
0

>  <SCORE.INTRA.VDW>
0

>  <SCORE.INTRA.VDW.0>
0

>  <SCORE.INTRA.norm>
0

>  <SCORE.RESTR>
0

>  <SCORE.RESTR.CAVITY>
0

>  <SCORE.RESTR.norm>
0

>  <SCORE.SYSTEM>
-1.51329

>  <SCORE.SYSTEM.CONST>
0

>  <SCORE.SYSTEM.DIHEDRAL>
0.416627

>  <SCORE.SYSTEM.POLAR>
-0.503089

>  <SCORE.SYSTEM.VDW>
-0.011105

>  <SCORE.SYSTEM.norm>
-0.0945808

>  <SCORE.heavy>
16

>  <SCORE.norm>
-0.737481

>  <enum_code>
T

>  <enum_smi>
C=C1NN2C(=O)C3CCCC3=NC2=C1C#N

>  <sha256>
39e1b0cb6462242f67993cb5678037f9b85a03408faf08abbd395fb60bce143b

>  <std_smi>
Cc1nn2c(O)c3c(nc2c1C#N)CCC3

>  <uuid>
a50edc1e-3c8a-4b2b-abb6-21bafb8f7440

$$$$
a50edc1e-3c8a-4b2b-abb6-21bafb8f7440
  rDOCK(R)          3D
libRbt.so/2013.1/901 2013/11/27
 17 19  0  0  0  0  0  0  0  0999 V2000
   -0.7797   24.6271    6.3548 C   0  0  0  0  0  0
   -2.0295   24.9379    5.9981 C   0  0  0  0  0  0
   -2.6763   26.1483    6.2163 N   0  0  0  0  0  0
   -3.8627   26.1080    5.4738 N   0  0  0  0  0  0
   -4.7012   27.1860    5.3146 C   0  0  0  0  0  0
   -4.5547   28.2861    5.8389 O   0  0  0  0  0  0
   -5.7550   26.8968    4.2843 C   0  0  0  0  0  0
   -6.0396   25.4322    4.1070 C   0  0  0  0  0  0
   -5.2068   24.4686    4.3498 N   0  0  0  0  0  0
   -4.0450   24.8437    4.9651 C   0  0  0  0  0  0
   -2.9718   24.0908    5.2627 C   0  0  0  0  0  0
   -2.7902   22.7302    4.9387 C   0  0  0  0  0  0
   -2.6000   21.6140    4.6802 N   0  0  0  0  0  0
   -7.4472   25.1762    3.6459 C   0  0  0  0  0  0
   -8.0369   26.5872    3.6347 C   0  0  0  0  0  0
   -7.1541   27.4131    4.5742 C   0  0  0  0  0  0
   -2.1085   26.9854    6.0878 H   0  0  0  0  0  0
  1  2  2  0  0  0
  2  3  1  0  0  0
  3  4  1  0  0  0
  4  5  1  0  0  0
  5  6  2  0  0  0
  5  7  1  0  0  0
  7  8  1  0  0  0
  8  9  2  0  0  0
  9 10  1  0  0  0
 10 11  2  0  0  0
 11 12  1  0  0  0
 12 13  3  0  0  0
  8 14  1  0  0  0
 14 15  1  0  0  0
 15 16  1  0  0  0
 11  2  1  0  0  0
 10  4  1  0  0  0
 16  7  1  0  0  0
  3 17  1  0  0  0
M  END
>  <CHROM.0>
-59.88758699,68.88692841

>  <CHROM.1>
-4.43696262,25.46679353,4.98699565,-0.43314728,-0.41903566,0.29399331

>  <Name>
a50edc1e-3c8a-4b2b-abb6-21bafb8f7440

>  <RI>
3.09261e+07

>  <Rbt.Current_Directory>
/data/work/jku/5V6S/work/40/8dba899c20c42488f2b1a17844994e

>  <Rbt.Executable>
rbdock ($Id: //depot/dev/client3/rdock/2013.1/src/exe/rbdock.cxx#4 $)

>  <Rbt.Library>
libRbt.so (2013.1, Build901 2013/11/27)

>  <Rbt.Parameter_File>
/rDock_2013.1_src/data/scripts/dock.prm

>  <Rbt.Receptor>
docking.prm

>  <SCORE>
-12.2384

>  <SCORE.INTER>
-10.7247

>  <SCORE.INTER.CONST>
1

>  <SCORE.INTER.POLAR>
0

>  <SCORE.INTER.REPUL>
0

>  <SCORE.INTER.ROT>
0

>  <SCORE.INTER.VDW>
-16.1247

>  <SCORE.INTER.norm>
-0.670296

>  <SCORE.INTRA>
0

>  <SCORE.INTRA.DIHEDRAL>
0

>  <SCORE.INTRA.DIHEDRAL.0>
0

>  <SCORE.INTRA.POLAR>
0

>  <SCORE.INTRA.POLAR.0>
0

>  <SCORE.INTRA.REPUL>
0

>  <SCORE.INTRA.REPUL.0>
0

>  <SCORE.INTRA.VDW>
0

>  <SCORE.INTRA.VDW.0>
0

>  <SCORE.INTRA.norm>
0

>  <SCORE.RESTR>
0

>  <SCORE.RESTR.CAVITY>
0

>  <SCORE.RESTR.norm>
0

>  <SCORE.SYSTEM>
-1.51367

>  <SCORE.SYSTEM.CONST>
0

>  <SCORE.SYSTEM.DIHEDRAL>
0.390388

>  <SCORE.SYSTEM.POLAR>
-0.502912

>  <SCORE.SYSTEM.VDW>
0.00103931

>  <SCORE.SYSTEM.norm>
-0.0946041

>  <SCORE.heavy>
16

>  <SCORE.norm>
-0.7649

>  <enum_code>
T

>  <enum_smi>
C=C1NN2C(=O)C3CCCC3=NC2=C1C#N

>  <sha256>
39e1b0cb6462242f67993cb5678037f9b85a03408faf08abbd395fb60bce143b

>  <std_smi>
Cc1nn2c(O)c3c(nc2c1C#N)CCC3

>  <uuid>
a50edc1e-3c8a-4b2b-abb6-21bafb8f7440

$$$$
a50edc1e-3c8a-4b2b-abb6-21bafb8f7440
  rDOCK(R)          3D
libRbt.so/2013.1/901 2013/11/27
 17 19  0  0  0  0  0  0  0  0999 V2000
   -0.4493   24.8022    6.3650 C   0  0  0  0  0  0
   -1.7132   24.9976    5.9775 C   0  0  0  0  0  0
   -2.4905   26.1228    6.2241 N   0  0  0  0  0  0
   -3.6425   25.9939    5.4388 N   0  0  0  0  0  0
   -4.5846   26.9850    5.2960 C   0  0  0  0  0  0
   -4.5711   28.0690    5.8717 O   0  0  0  0  0  0
   -5.5696   26.6359    4.2173 C   0  0  0  0  0  0
   -5.6926   25.1594    3.9675 C   0  0  0  0  0  0
   -4.7708   24.2774    4.1984 N   0  0  0  0  0  0
   -3.6746   24.7423    4.8703 C   0  0  0  0  0  0
   -2.5377   24.0921    5.1735 C   0  0  0  0  0  0
   -2.2038   22.7741    4.7983 C   0  0  0  0  0  0
   -1.8890   21.6969    4.4992 N   0  0  0  0  0  0
   -7.0504   24.7801    3.4460 C   0  0  0  0  0  0
   -7.7849   26.1211    3.4741 C   0  0  0  0  0  0
   -7.0237   26.9900    4.4789 C   0  0  0  0  0  0
   -2.0103   27.0195    6.1518 H   0  0  0  0  0  0
  1  2  2  0  0  0
  2  3  1  0  0  0
  3  4  1  0  0  0
  4  5  1  0  0  0
  5  6  2  0  0  0
  5  7  1  0  0  0
  7  8  1  0  0  0
  8  9  2  0  0  0
  9 10  1  0  0  0
 10 11  2  0  0  0
 11 12  1  0  0  0
 12 13  3  0  0  0
  8 14  1  0  0  0
 14 15  1  0  0  0
 15 16  1  0  0  0
 11  2  1  0  0  0
 10  4  1  0  0  0
 16  7  1  0  0  0
  3 17  1  0  0  0
M  END
>  <CHROM.0>
-59.88758699,68.38590320

>  <CHROM.1>
-4.13054698,25.31961609,4.90478731,-0.31276465,-0.41545297,0.38748129

>  <Name>
a50edc1e-3c8a-4b2b-abb6-21bafb8f7440

>  <RI>
3.09261e+07

>  <Rbt.Current_Directory>
/data/work/jku/5V6S/work/40/8dba899c20c42488f2b1a17844994e

>  <Rbt.Executable>
rbdock ($Id: //depot/dev/client3/rdock/2013.1/src/exe/rbdock.cxx#4 $)

>  <Rbt.Library>
libRbt.so (2013.1, Build901 2013/11/27)

>  <Rbt.Parameter_File>
/rDock_2013.1_src/data/scripts/dock.prm

>  <Rbt.Receptor>
docking.prm

>  <SCORE>
-12.1541

>  <SCORE.INTER>
-10.6417

>  <SCORE.INTER.CONST>
1

>  <SCORE.INTER.POLAR>
-0.0814833

>  <SCORE.INTER.REPUL>
0

>  <SCORE.INTER.ROT>
0

>  <SCORE.INTER.VDW>
-15.7647

>  <SCORE.INTER.norm>
-0.665109

>  <SCORE.INTRA>
0

>  <SCORE.INTRA.DIHEDRAL>
0

>  <SCORE.INTRA.DIHEDRAL.0>
0

>  <SCORE.INTRA.POLAR>
0

>  <SCORE.INTRA.POLAR.0>
0

>  <SCORE.INTRA.REPUL>
0

>  <SCORE.INTRA.REPUL.0>
0

>  <SCORE.INTRA.VDW>
0

>  <SCORE.INTRA.VDW.0>
0

>  <SCORE.INTRA.norm>
0

>  <SCORE.RESTR>
0

>  <SCORE.RESTR.CAVITY>
0

>  <SCORE.RESTR.norm>
0

>  <SCORE.SYSTEM>
-1.51236

>  <SCORE.SYSTEM.CONST>
0

>  <SCORE.SYSTEM.DIHEDRAL>
0.349123

>  <SCORE.SYSTEM.POLAR>
-0.502457

>  <SCORE.SYSTEM.VDW>
0.0214281

>  <SCORE.SYSTEM.norm>
-0.0945228

>  <SCORE.heavy>
16

>  <SCORE.norm>
-0.759632

>  <enum_code>
T

>  <enum_smi>
C=C1NN2C(=O)C3CCCC3=NC2=C1C#N

>  <sha256>
39e1b0cb6462242f67993cb5678037f9b85a03408faf08abbd395fb60bce143b

>  <std_smi>
Cc1nn2c(O)c3c(nc2c1C#N)CCC3

>  <uuid>
a50edc1e-3c8a-4b2b-abb6-21bafb8f7440

$$$$
d50fb155-3a6a-4644-8778-0b5426e14769
  rDOCK(R)          3D
libRbt.so/2013.1/901 2013/11/27
 19 21  0  0  0  0  0  0  0  0999 V2000
   -0.6282   24.6206    6.4246 C   0  0  0  0  0  0
   -1.8162   24.9469    5.9071 C   0  0  0  0  0  0
   -2.4228   26.2005    5.9326 N   0  0  0  0  0  0
   -3.7095   26.0607    5.4745 N   0  0  0  0  0  0
   -4.7198   27.0082    5.3533 C   0  0  0  0  0  0
   -4.4620   28.2725    5.8371 O   0  0  0  0  0  0
   -5.8970   26.6605    4.7884 C   0  0  0  0  0  0
   -6.1161   25.2979    4.3014 C   0  0  0  0  0  0
   -5.1079   24.3800    4.4325 N   0  0  0  0  0  0
   -3.9089   24.7393    5.0052 C   0  0  0  0  0  0
   -2.7741   24.0438    5.2448 C   0  0  0  0  0  0
   -2.5581   22.6852    4.9382 C   0  0  0  0  0  0
   -2.3950   21.5635    4.6852 N   0  0  0  0  0  0
   -7.3380   25.1802    3.7818 C   0  0  0  0  0  0
   -8.1016   26.4652    3.8567 C   0  0  0  0  0  0
   -7.1404   27.4542    4.5342 C   0  0  0  0  0  0
   -2.3090   26.7268    6.7955 H   0  0  0  0  0  0
   -3.5345   28.2964    6.1177 H   0  0  0  0  0  0
   -5.2422   23.4388    4.0888 H   0  0  0  0  0  0
  1  2  2  0  0  0
  2  3  1  0  0  0
  3  4  1  0  0  0
  4  5  1  0  0  0
  5  6  1  0  0  0
  5  7  2  0  0  0
  7  8  1  0  0  0
  8  9  1  0  0  0
  9 10  1  0  0  0
 10 11  2  0  0  0
 11 12  1  0  0  0
 12 13  3  0  0  0
  8 14  2  0  0  0
 14 15  1  0  0  0
 15 16  1  0  0  0
 11  2  1  0  0  0
 10  4  1  0  0  0
 16  7  1  0  0  0
  3 17  1  0  0  0
  6 18  1  0  0  0
  9 19  1  0  0  0
M  END
>  <CHROM.0>
-59.88758699,68.90602468

>  <CHROM.1>
5.51619656,-4.32008921,25.40746160,5.05032817,-0.43638916,-0.36898243,0.28699088

>  <Name>
d50fb155-3a6a-4644-8778-0b5426e14769

>  <RI>
4.01462e+07

>  <Rbt.Current_Directory>
/data/work/jku/5V6S/work/40/8dba899c20c42488f2b1a17844994e

>  <Rbt.Executable>
rbdock ($Id: //depot/dev/client3/rdock/2013.1/src/exe/rbdock.cxx#4 $)

>  <Rbt.Library>
libRbt.so (2013.1, Build901 2013/11/27)

>  <Rbt.Parameter_File>
/rDock_2013.1_src/data/scripts/dock.prm

>  <Rbt.Receptor>
docking.prm

>  <SCORE>
-13.781

>  <SCORE.INTER>
-11.6115

>  <SCORE.INTER.CONST>
1

>  <SCORE.INTER.POLAR>
-0.0153327

>  <SCORE.INTER.REPUL>
0

>  <SCORE.INTER.ROT>
0

>  <SCORE.INTER.VDW>
-16.9594

>  <SCORE.INTER.norm>
-0.725719

>  <SCORE.INTRA>
-0.655801

>  <SCORE.INTRA.DIHEDRAL>
0.016258

>  <SCORE.INTRA.DIHEDRAL.0>
0.0236804

>  <SCORE.INTRA.POLAR>
-0.117803

>  <SCORE.INTRA.POLAR.0>
0

>  <SCORE.INTRA.REPUL>
0

>  <SCORE.INTRA.REPUL.0>
0

>  <SCORE.INTRA.VDW>
-0.2634

>  <SCORE.INTRA.VDW.0>
0.266722

>  <SCORE.INTRA.norm>
-0.0409875

>  <SCORE.RESTR>
0

>  <SCORE.RESTR.CAVITY>
0

>  <SCORE.RESTR.norm>
0

>  <SCORE.SYSTEM>
-1.51367

>  <SCORE.SYSTEM.CONST>
0

>  <SCORE.SYSTEM.DIHEDRAL>
0.392005

>  <SCORE.SYSTEM.POLAR>
-0.502925

>  <SCORE.SYSTEM.VDW>
0.00027366

>  <SCORE.SYSTEM.norm>
-0.0946043

>  <SCORE.heavy>
16

>  <SCORE.norm>
-0.861311

>  <enum_code>
T

>  <enum_smi>
C=C1NN2C(O)=C3CCC=C3NC2=C1C#N

>  <sha256>
39e1b0cb6462242f67993cb5678037f9b85a03408faf08abbd395fb60bce143b

>  <std_smi>
Cc1nn2c(O)c3c(nc2c1C#N)CCC3

>  <uuid>
d50fb155-3a6a-4644-8778-0b5426e14769

$$$$
d50fb155-3a6a-4644-8778-0b5426e14769
  rDOCK(R)          3D
libRbt.so/2013.1/901 2013/11/27
 19 21  0  0  0  0  0  0  0  0999 V2000
   -0.1021   32.4753   -0.0844 C   0  0  0  0  0  0
   -0.5446   31.6389    0.8591 C   0  0  0  0  0  0
   -0.1692   30.3099    1.0403 N   0  0  0  0  0  0
   -0.9985   29.7577    1.9850 N   0  0  0  0  0  0
   -1.0504   28.4572    2.4739 C   0  0  0  0  0  0
   -0.2210   27.5272    1.8857 O   0  0  0  0  0  0
   -1.9019   28.1551    3.4787 C   0  0  0  0  0  0
   -2.7665   29.1844    4.0574 C   0  0  0  0  0  0
   -2.7003   30.4586    3.5593 N   0  0  0  0  0  0
   -1.8288   30.7630    2.5382 C   0  0  0  0  0  0
   -1.5682   31.9165    1.8823 C   0  0  0  0  0  0
   -2.1886   33.1597    2.1197 C   0  0  0  0  0  0
   -2.7113   34.1768    2.3219 N   0  0  0  0  0  0
   -3.5165   28.6686    5.0312 C   0  0  0  0  0  0
   -3.2460   27.2101    5.2299 C   0  0  0  0  0  0
   -2.1700   26.8650    4.1887 C   0  0  0  0  0  0
   -0.0380   29.7698    0.1885 H   0  0  0  0  0  0
    0.1955   27.9484    1.1183 H   0  0  0  0  0  0
   -3.2833   31.1815    3.9589 H   0  0  0  0  0  0
  1  2  2  0  0  0
  2  3  1  0  0  0
  3  4  1  0  0  0
  4  5  1  0  0  0
  5  6  1  0  0  0
  5  7  2  0  0  0
  7  8  1  0  0  0
  8  9  1  0  0  0
  9 10  1  0  0  0
 10 11  2  0  0  0
 11 12  1  0  0  0
 12 13  3  0  0  0
  8 14  2  0  0  0
 14 15  1  0  0  0
 15 16  1  0  0  0
 11  2  1  0  0  0
 10  4  1  0  0  0
 16  7  1  0  0  0
  3 17  1  0  0  0
  6 18  1  0  0  0
  9 19  1  0  0  0
M  END
>  <CHROM.0>
-59.88758699,69.76534380

>  <CHROM.1>
-7.26251426,-1.70072044,29.99444551,2.64094242,-1.27735592,-0.79742610,2.81491692

>  <Name>
d50fb155-3a6a-4644-8778-0b5426e14769

>  <RI>
4.01462e+07

>  <Rbt.Current_Directory>
/data/work/jku/5V6S/work/40/8dba899c20c42488f2b1a17844994e

>  <Rbt.Executable>
rbdock ($Id: //depot/dev/client3/rdock/2013.1/src/exe/rbdock.cxx#4 $)

>  <Rbt.Library>
libRbt.so (2013.1, Build901 2013/11/27)

>  <Rbt.Parameter_File>
/rDock_2013.1_src/data/scripts/dock.prm

>  <Rbt.Receptor>
docking.prm

>  <SCORE>
-16.5687

>  <SCORE.INTER>
-14.5443

>  <SCORE.INTER.CONST>
1

>  <SCORE.INTER.POLAR>
-1.26557

>  <SCORE.INTER.REPUL>
0

>  <SCORE.INTER.ROT>
0

>  <SCORE.INTER.VDW>
-15.6414

>  <SCORE.INTER.norm>
-0.90902

>  <SCORE.INTRA>
-0.514087

>  <SCORE.INTRA.DIHEDRAL>
0.0593719

>  <SCORE.INTRA.DIHEDRAL.0>
0.0236804

>  <SCORE.INTRA.POLAR>
-0.0920376

>  <SCORE.INTRA.POLAR.0>
0

>  <SCORE.INTRA.REPUL>
0

>  <SCORE.INTRA.REPUL.0>
0

>  <SCORE.INTRA.VDW>
-0.230845

>  <SCORE.INTRA.VDW.0>
0.266722

>  <SCORE.INTRA.norm>
-0.0321304

>  <SCORE.RESTR>
0

>  <SCORE.RESTR.CAVITY>
0

>  <SCORE.RESTR.norm>
0

>  <SCORE.SYSTEM>
-1.51024

>  <SCORE.SYSTEM.CONST>
0

>  <SCORE.SYSTEM.DIHEDRAL>
0.46806

>  <SCORE.SYSTEM.POLAR>
-0.503218

>  <SCORE.SYSTEM.VDW>
-0.0333245

>  <SCORE.SYSTEM.norm>
-0.0943898

>  <SCORE.heavy>
16

>  <SCORE.norm>
-1.03554

>  <enum_code>
T

>  <enum_smi>
C=C1NN2C(O)=C3CCC=C3NC2=C1C#N

>  <sha256>
39e1b0cb6462242f67993cb5678037f9b85a03408faf08abbd395fb60bce143b

>  <std_smi>
Cc1nn2c(O)c3c(nc2c1C#N)CCC3

>  <uuid>
d50fb155-3a6a-4644-8778-0b5426e14769

$$$$
d50fb155-3a6a-4644-8778-0b5426e14769
  rDOCK(R)          3D
libRbt.so/2013.1/901 2013/11/27
 19 21  0  0  0  0  0  0  0  0999 V2000
   -0.0849   32.4535   -0.1345 C   0  0  0  0  0  0
   -0.4959   31.6204    0.8261 C   0  0  0  0  0  0
   -0.0870   30.3033    1.0209 N   0  0  0  0  0  0
   -0.8914   29.7454    1.9836 N   0  0  0  0  0  0
   -0.9066   28.4510    2.4911 C   0  0  0  0  0  0
   -0.0628   27.5324    1.9055 O   0  0  0  0  0  0
   -1.7384   28.1434    3.5106 C   0  0  0  0  0  0
   -2.6199   29.1602    4.0859 C   0  0  0  0  0  0
   -2.5899   30.4284    3.5693 N   0  0  0  0  0  0
   -1.7384   30.7386    2.5332 C   0  0  0  0  0  0
   -1.5131   31.8885    1.8581 C   0  0  0  0  0  0
   -2.1597   33.1201    2.0860 C   0  0  0  0  0  0
   -2.7038   34.1274    2.2806 N   0  0  0  0  0  0
   -3.3455   28.6409    5.0761 C   0  0  0  0  0  0
   -3.0382   27.1921    5.2917 C   0  0  0  0  0  0
   -1.9672   26.8575    4.2418 C   0  0  0  0  0  0
    0.0464   29.7544    0.1751 H   0  0  0  0  0  0
   -0.0536   26.7421    2.4667 H   0  0  0  0  0  0
   -3.1848   31.1431    3.9661 H   0  0  0  0  0  0
  1  2  2  0  0  0
  2  3  1  0  0  0
  3  4  1  0  0  0
  4  5  1  0  0  0
  5  6  1  0  0  0
  5  7  2  0  0  0
  7  8  1  0  0  0
  8  9  1  0  0  0
  9 10  1  0  0  0
 10 11  2  0  0  0
 11 12  1  0  0  0
 12 13  3  0  0  0
  8 14  2  0  0  0
 14 15  1  0  0  0
 15 16  1  0  0  0
 11  2  1  0  0  0
 10  4  1  0  0  0
 16  7  1  0  0  0
  3 17  1  0  0  0
  6 18  1  0  0  0
  9 19  1  0  0  0
M  END
>  <CHROM.0>
-59.88758699,68.68438410

>  <CHROM.1>
168.97924574,-1.59277788,29.96915035,2.65127632,-1.32200138,-0.79952921,2.77262642

>  <Name>
d50fb155-3a6a-4644-8778-0b5426e14769

>  <RI>
4.01462e+07

>  <Rbt.Current_Directory>
/data/work/jku/5V6S/work/40/8dba899c20c42488f2b1a17844994e

>  <Rbt.Executable>
rbdock ($Id: //depot/dev/client3/rdock/2013.1/src/exe/rbdock.cxx#4 $)

>  <Rbt.Library>
libRbt.so (2013.1, Build901 2013/11/27)

>  <Rbt.Parameter_File>
/rDock_2013.1_src/data/scripts/dock.prm

>  <Rbt.Receptor>
docking.prm

>  <SCORE>
-15.8813

>  <SCORE.INTER>
-14.4089

>  <SCORE.INTER.CONST>
1

>  <SCORE.INTER.POLAR>
-1.2085

>  <SCORE.INTER.REPUL>
0.0475192

>  <SCORE.INTER.ROT>
0

>  <SCORE.INTER.VDW>
-15.9375

>  <SCORE.INTER.norm>
-0.900554

>  <SCORE.INTRA>
0.0409657

>  <SCORE.INTRA.DIHEDRAL>
0.161094

>  <SCORE.INTRA.DIHEDRAL.0>
0.0236804

>  <SCORE.INTRA.POLAR>
0

>  <SCORE.INTRA.POLAR.0>
0

>  <SCORE.INTRA.REPUL>
0

>  <SCORE.INTRA.REPUL.0>
0

>  <SCORE.INTRA.VDW>
-0.0395813

>  <SCORE.INTRA.VDW.0>
0.266722

>  <SCORE.INTRA.norm>
0.00256036

>  <SCORE.RESTR>
0

>  <SCORE.RESTR.CAVITY>
0

>  <SCORE.RESTR.norm>
0

>  <SCORE.SYSTEM>
-1.51343

>  <SCORE.SYSTEM.CONST>
0

>  <SCORE.SYSTEM.DIHEDRAL>
0.373438

>  <SCORE.SYSTEM.POLAR>
-0.502753

>  <SCORE.SYSTEM.VDW>
0.00921172

>  <SCORE.SYSTEM.norm>
-0.0945893

>  <SCORE.heavy>
16

>  <SCORE.norm>
-0.992583

>  <enum_code>
T

>  <enum_smi>
C=C1NN2C(O)=C3CCC=C3NC2=C1C#N

>  <sha256>
39e1b0cb6462242f67993cb5678037f9b85a03408faf08abbd395fb60bce143b

>  <std_smi>
Cc1nn2c(O)c3c(nc2c1C#N)CCC3

>  <uuid>
d50fb155-3a6a-4644-8778-0b5426e14769

$$$$
d50fb155-3a6a-4644-8778-0b5426e14769
  rDOCK(R)          3D
libRbt.so/2013.1/901 2013/11/27
 19 21  0  0  0  0  0  0  0  0999 V2000
   -2.0477   28.1555    6.1625 C   0  0  0  0  0  0
   -2.0715   26.9068    5.6872 C   0  0  0  0  0  0
   -0.9727   26.1206    5.3488 N   0  0  0  0  0  0
   -1.4343   24.9921    4.7176 N   0  0  0  0  0  0
   -0.7287   23.9325    4.1586 C   0  0  0  0  0  0
    0.6455   24.0312    4.1336 O   0  0  0  0  0  0
   -1.4012   22.8718    3.6599 C   0  0  0  0  0  0
   -2.8634   22.8279    3.7059 C   0  0  0  0  0  0
   -3.5383   23.8834    4.2594 N   0  0  0  0  0  0
   -2.8493   24.9604    4.7696 C   0  0  0  0  0  0
   -3.2633   26.1036    5.3616 C   0  0  0  0  0  0
   -4.6029   26.4721    5.5995 C   0  0  0  0  0  0
   -5.7110   26.7660    5.7848 N   0  0  0  0  0  0
   -3.3122   21.6950    3.1656 C   0  0  0  0  0  0
   -2.1932   20.8262    2.6829 C   0  0  0  0  0  0
   -0.9153   21.6147    3.0086 C   0  0  0  0  0  0
   -0.2068   26.6087    4.8910 H   0  0  0  0  0  0
    0.9868   23.2617    3.6530 H   0  0  0  0  0  0
   -4.5478   23.8597    4.3085 H   0  0  0  0  0  0
  1  2  2  0  0  0
  2  3  1  0  0  0
  3  4  1  0  0  0
  4  5  1  0  0  0
  5  6  1  0  0  0
  5  7  2  0  0  0
  7  8  1  0  0  0
  8  9  1  0  0  0
  9 10  1  0  0  0
 10 11  2  0  0  0
 11 12  1  0  0  0
 12 13  3  0  0  0
  8 14  2  0  0  0
 14 15  1  0  0  0
 15 16  1  0  0  0
 11  2  1  0  0  0
 10  4  1  0  0  0
 16  7  1  0  0  0
  3 17  1  0  0  0
  6 18  1  0  0  0
  9 19  1  0  0  0
M  END
>  <CHROM.0>
-59.88758699,68.87901340

>  <CHROM.1>
-175.33883514,-2.26741694,24.49584523,4.49957145,-1.86604626,-0.04457054
-2.68673766

>  <Name>
d50fb155-3a6a-4644-8778-0b5426e14769

>  <RI>
4.01462e+07

>  <Rbt.Current_Directory>
/data/work/jku/5V6S/work/40/8dba899c20c42488f2b1a17844994e

>  <Rbt.Executable>
rbdock ($Id: //depot/dev/client3/rdock/2013.1/src/exe/rbdock.cxx#4 $)

>  <Rbt.Library>
libRbt.so (2013.1, Build901 2013/11/27)

>  <Rbt.Parameter_File>
/rDock_2013.1_src/data/scripts/dock.prm

>  <Rbt.Receptor>
docking.prm

>  <SCORE>
-12.1728

>  <SCORE.INTER>
-10.6612

>  <SCORE.INTER.CONST>
1

>  <SCORE.INTER.POLAR>
0

>  <SCORE.INTER.REPUL>
0

>  <SCORE.INTER.ROT>
0

>  <SCORE.INTER.VDW>
-16.0612

>  <SCORE.INTER.norm>
-0.666328

>  <SCORE.INTRA>
0.00206655

>  <SCORE.INTRA.DIHEDRAL>
0.00431787

>  <SCORE.INTRA.DIHEDRAL.0>
0.0236804

>  <SCORE.INTRA.POLAR>
0

>  <SCORE.INTRA.POLAR.0>
0

>  <SCORE.INTRA.REPUL>
0

>  <SCORE.INTRA.REPUL.0>
0

>  <SCORE.INTRA.VDW>
-9.23863e-05

>  <SCORE.INTRA.VDW.0>
0.266722

>  <SCORE.INTRA.norm>
0.000129159

>  <SCORE.RESTR>
0

>  <SCORE.RESTR.CAVITY>
0

>  <SCORE.RESTR.norm>
0

>  <SCORE.SYSTEM>
-1.51366

>  <SCORE.SYSTEM.CONST>
0

>  <SCORE.SYSTEM.DIHEDRAL>
0.389719

>  <SCORE.SYSTEM.POLAR>
-0.502906

>  <SCORE.SYSTEM.VDW>
0.0013569

>  <SCORE.SYSTEM.norm>
-0.094604

>  <SCORE.heavy>
16

>  <SCORE.norm>
-0.760803

>  <enum_code>
T

>  <enum_smi>
C=C1NN2C(O)=C3CCC=C3NC2=C1C#N

>  <sha256>
39e1b0cb6462242f67993cb5678037f9b85a03408faf08abbd395fb60bce143b

>  <std_smi>
Cc1nn2c(O)c3c(nc2c1C#N)CCC3

>  <uuid>
d50fb155-3a6a-4644-8778-0b5426e14769

$$$$
d50fb155-3a6a-4644-8778-0b5426e14769
  rDOCK(R)          3D
libRbt.so/2013.1/901 2013/11/27
 19 21  0  0  0  0  0  0  0  0999 V2000
   -0.0339   22.5234    3.9483 C   0  0  0  0  0  0
   -1.1400   23.2305    4.1975 C   0  0  0  0  0  0
   -2.4306   22.9455    3.7579 N   0  0  0  0  0  0
   -3.2311   24.0188    4.0619 N   0  0  0  0  0  0
   -4.5781   24.2304    3.7905 C   0  0  0  0  0  0
   -5.2250   23.2846    3.0252 O   0  0  0  0  0  0
   -5.1892   25.3377    4.2665 C   0  0  0  0  0  0
   -4.4467   26.3129    5.0664 C   0  0  0  0  0  0
   -3.1201   26.0853    5.3200 N   0  0  0  0  0  0
   -2.5023   24.9543    4.8364 C   0  0  0  0  0  0
   -1.2340   24.4976    4.9440 C   0  0  0  0  0  0
   -0.1811   25.1379    5.6282 C   0  0  0  0  0  0
    0.6789   25.6785    6.1909 N   0  0  0  0  0  0
   -5.2428   27.3177    5.4317 C   0  0  0  0  0  0
   -6.6364   27.1406    4.9158 C   0  0  0  0  0  0
   -6.6000   25.8192    4.1323 C   0  0  0  0  0  0
   -2.5029   22.5871    2.8088 H   0  0  0  0  0  0
   -4.5908   22.5766    2.8348 H   0  0  0  0  0  0
   -2.5992   26.7450    5.8818 H   0  0  0  0  0  0
  1  2  2  0  0  0
  2  3  1  0  0  0
  3  4  1  0  0  0
  4  5  1  0  0  0
  5  6  1  0  0  0
  5  7  2  0  0  0
  7  8  1  0  0  0
  8  9  1  0  0  0
  9 10  1  0  0  0
 10 11  2  0  0  0
 11 12  1  0  0  0
 12 13  3  0  0  0
  8 14  2  0  0  0
 14 15  1  0  0  0
 15 16  1  0  0  0
 11  2  1  0  0  0
 10  4  1  0  0  0
 16  7  1  0  0  0
  3 17  1  0  0  0
  6 18  1  0  0  0
  9 19  1  0  0  0
M  END
>  <CHROM.0>
-59.88758699,68.70842079

>  <CHROM.1>
2.60131082,-3.23362401,24.87386012,4.56014715,0.27344120,0.24434750,-2.59904564

>  <Name>
d50fb155-3a6a-4644-8778-0b5426e14769

>  <RI>
4.01462e+07

>  <Rbt.Current_Directory>
/data/work/jku/5V6S/work/40/8dba899c20c42488f2b1a17844994e

>  <Rbt.Executable>
rbdock ($Id: //depot/dev/client3/rdock/2013.1/src/exe/rbdock.cxx#4 $)

>  <Rbt.Library>
libRbt.so (2013.1, Build901 2013/11/27)

>  <Rbt.Parameter_File>
/rDock_2013.1_src/data/scripts/dock.prm

>  <Rbt.Receptor>
docking.prm

>  <SCORE>
-13.1828

>  <SCORE.INTER>
-11.0125

>  <SCORE.INTER.CONST>
1

>  <SCORE.INTER.POLAR>
0

>  <SCORE.INTER.REPUL>
0

>  <SCORE.INTER.ROT>
0

>  <SCORE.INTER.VDW>
-16.4125

>  <SCORE.INTER.norm>
-0.688283

>  <SCORE.INTRA>
-0.656781

>  <SCORE.INTRA.DIHEDRAL>
-0.0157543

>  <SCORE.INTRA.DIHEDRAL.0>
0.0236804

>  <SCORE.INTRA.POLAR>
-0.117229

>  <SCORE.INTRA.POLAR.0>
0

>  <SCORE.INTRA.REPUL>
0

>  <SCORE.INTRA.REPUL.0>
0

>  <SCORE.INTRA.VDW>
-0.250327

>  <SCORE.INTRA.VDW.0>
0.266722

>  <SCORE.INTRA.norm>
-0.0410488

>  <SCORE.RESTR>
0

>  <SCORE.RESTR.CAVITY>
0

>  <SCORE.RESTR.norm>
0

>  <SCORE.SYSTEM>
-1.51348

>  <SCORE.SYSTEM.CONST>
0

>  <SCORE.SYSTEM.DIHEDRAL>
0.375431

>  <SCORE.SYSTEM.POLAR>
-0.502773

>  <SCORE.SYSTEM.VDW>
0.00823693

>  <SCORE.SYSTEM.norm>
-0.0945923

>  <SCORE.heavy>
16

>  <SCORE.norm>
-0.823924

>  <enum_code>
T

>  <enum_smi>
C=C1NN2C(O)=C3CCC=C3NC2=C1C#N

>  <sha256>
39e1b0cb6462242f67993cb5678037f9b85a03408faf08abbd395fb60bce143b

>  <std_smi>
Cc1nn2c(O)c3c(nc2c1C#N)CCC3

>  <uuid>
d50fb155-3a6a-4644-8778-0b5426e14769

$$$$
91181622-e44b-4288-aa7b-809b33940e56
  rDOCK(R)          3D
libRbt.so/2013.1/901 2013/11/27
 18 20  0  0  0  0  0  0  0  0999 V2000
   -0.1056   32.4484   -0.0741 C   0  0  0  0  0  0
   -0.5339   31.6010    0.8663 C   0  0  0  0  0  0
   -0.1400   30.2749    1.0381 N   0  0  0  0  0  0
   -0.9589   29.7101    1.9832 N   0  0  0  0  0  0
   -0.9766   28.4275    2.4927 C   0  0  0  0  0  0
   -0.1381   27.4978    1.9212 O   0  0  0  0  0  0
   -1.8013   28.1466    3.5114 C   0  0  0  0  0  0
   -2.6745   29.2684    3.9921 C   0  0  0  0  0  0
   -2.6949   30.4932    3.5666 N   0  0  0  0  0  0
   -1.7960   30.6984    2.5445 C   0  0  0  0  0  0
   -1.5583   31.8601    1.8949 C   0  0  0  0  0  0
   -2.1921   33.0966    2.1371 C   0  0  0  0  0  0
   -2.6917   34.1332    2.2980 N   0  0  0  0  0  0
   -3.5658   28.7722    5.0900 C   0  0  0  0  0  0
   -3.5180   27.2579    4.8651 C   0  0  0  0  0  0
   -2.1282   26.9352    4.3059 C   0  0  0  0  0  0
   -0.0047   29.7463    0.1792 H   0  0  0  0  0  0
    0.2297   27.8778    1.1079 H   0  0  0  0  0  0
  1  2  2  0  0  0
  2  3  1  0  0  0
  3  4  1  0  0  0
  4  5  1  0  0  0
  5  6  1  0  0  0
  5  7  2  0  0  0
  7  8  1  0  0  0
  8  9  2  0  0  0
  9 10  1  0  0  0
 10 11  2  0  0  0
 11 12  1  0  0  0
 12 13  3  0  0  0
  8 14  1  0  0  0
 14 15  1  0  0  0
 15 16  1  0  0  0
 11  2  1  0  0  0
 10  4  1  0  0  0
 16  7  1  0  0  0
  3 17  1  0  0  0
  6 18  1  0  0  0
M  END
>  <CHROM.0>
-59.88758699,68.76153241

>  <CHROM.1>
-10.65343123,-1.68998079,29.97687435,2.63718970,-1.26497340,-0.77314684,2.81629677

>  <Name>
91181622-e44b-4288-aa7b-809b33940e56

>  <RI>
2.54743e+07

>  <Rbt.Current_Directory>
/data/work/jku/5V6S/work/40/8dba899c20c42488f2b1a17844994e

>  <Rbt.Executable>
rbdock ($Id: //depot/dev/client3/rdock/2013.1/src/exe/rbdock.cxx#4 $)

>  <Rbt.Library>
libRbt.so (2013.1, Build901 2013/11/27)

>  <Rbt.Parameter_File>
/rDock_2013.1_src/data/scripts/dock.prm

>  <Rbt.Receptor>
docking.prm

>  <SCORE>
-16.2117

>  <SCORE.INTER>
-14.4076

>  <SCORE.INTER.CONST>
1

>  <SCORE.INTER.POLAR>
-1.21097

>  <SCORE.INTER.REPUL>
0.00965283

>  <SCORE.INTER.ROT>
0

>  <SCORE.INTER.VDW>
-15.7385

>  <SCORE.INTER.norm>
-0.900473

>  <SCORE.INTRA>
-0.290523

>  <SCORE.INTRA.DIHEDRAL>
0.130799

>  <SCORE.INTRA.DIHEDRAL.0>
0.0330699

>  <SCORE.INTRA.POLAR>
-0.0585501

>  <SCORE.INTRA.POLAR.0>
0

>  <SCORE.INTRA.REPUL>
0

>  <SCORE.INTRA.REPUL.0>
0

>  <SCORE.INTRA.VDW>
-0.156853

>  <SCORE.INTRA.VDW.0>
0.126784

>  <SCORE.INTRA.norm>
-0.0181577

>  <SCORE.RESTR>
0

>  <SCORE.RESTR.CAVITY>
0

>  <SCORE.RESTR.norm>
0

>  <SCORE.SYSTEM>
-1.51356

>  <SCORE.SYSTEM.CONST>
0

>  <SCORE.SYSTEM.DIHEDRAL>
0.379851

>  <SCORE.SYSTEM.POLAR>
-0.502817

>  <SCORE.SYSTEM.VDW>
0.00608774

>  <SCORE.SYSTEM.norm>
-0.0945978

>  <SCORE.heavy>
16

>  <SCORE.norm>
-1.01323

>  <enum_code>
T

>  <enum_smi>
C=C1NN2C(O)=C3CCCC3=NC2=C1C#N

>  <sha256>
39e1b0cb6462242f67993cb5678037f9b85a03408faf08abbd395fb60bce143b

>  <std_smi>
Cc1nn2c(O)c3c(nc2c1C#N)CCC3

>  <uuid>
91181622-e44b-4288-aa7b-809b33940e56

$$$$
91181622-e44b-4288-aa7b-809b33940e56
  rDOCK(R)          3D
libRbt.so/2013.1/901 2013/11/27
 18 20  0  0  0  0  0  0  0  0999 V2000
   -0.5271   24.6961    6.4813 C   0  0  0  0  0  0
   -1.7117   24.9324    5.9097 C   0  0  0  0  0  0
   -2.4517   26.1117    5.9774 N   0  0  0  0  0  0
   -3.6850   25.8687    5.4268 N   0  0  0  0  0  0
   -4.7686   26.7084    5.2668 C   0  0  0  0  0  0
   -4.6971   27.9632    5.8275 O   0  0  0  0  0  0
   -5.8320   26.2693    4.5790 C   0  0  0  0  0  0
   -5.7596   24.8614    4.0648 C   0  0  0  0  0  0
   -4.7691   24.0309    4.1694 N   0  0  0  0  0  0
   -3.7109   24.5758    4.8609 C   0  0  0  0  0  0
   -2.5259   23.9827    5.1288 C   0  0  0  0  0  0
   -2.1412   22.6789    4.7525 C   0  0  0  0  0  0
   -1.7842   21.6102    4.4688 N   0  0  0  0  0  0
   -7.0427   24.5162    3.3716 C   0  0  0  0  0  0
   -7.9947   25.5720    3.9417 C   0  0  0  0  0  0
   -7.1576   26.8275    4.2088 C   0  0  0  0  0  0
   -2.4413   26.5808    6.8804 H   0  0  0  0  0  0
   -5.5560   28.3989    5.7105 H   0  0  0  0  0  0
  1  2  2  0  0  0
  2  3  1  0  0  0
  3  4  1  0  0  0
  4  5  1  0  0  0
  5  6  1  0  0  0
  5  7  2  0  0  0
  7  8  1  0  0  0
  8  9  2  0  0  0
  9 10  1  0  0  0
 10 11  2  0  0  0
 11 12  1  0  0  0
 12 13  3  0  0  0
  8 14  1  0  0  0
 14 15  1  0  0  0
 15 16  1  0  0  0
 11  2  1  0  0  0
 10  4  1  0  0  0
 16  7  1  0  0  0
  3 17  1  0  0  0
  6 18  1  0  0  0
M  END
>  <CHROM.0>
-59.88758699,68.74500833

>  <CHROM.1>
-174.40378471,-4.18886125,25.13919215,4.92152658,-0.29319204,-0.37238045
0.38753640

>  <Name>
91181622-e44b-4288-aa7b-809b33940e56

>  <RI>
2.54743e+07

>  <Rbt.Current_Directory>
/data/work/jku/5V6S/work/40/8dba899c20c42488f2b1a17844994e

>  <Rbt.Executable>
rbdock ($Id: //depot/dev/client3/rdock/2013.1/src/exe/rbdock.cxx#4 $)

>  <Rbt.Library>
libRbt.so (2013.1, Build901 2013/11/27)

>  <Rbt.Parameter_File>
/rDock_2013.1_src/data/scripts/dock.prm

>  <Rbt.Receptor>
docking.prm

>  <SCORE>
-12.6728

>  <SCORE.INTER>
-11.1639

>  <SCORE.INTER.CONST>
1

>  <SCORE.INTER.POLAR>
-0.113844

>  <SCORE.INTER.REPUL>
0

>  <SCORE.INTER.ROT>
0

>  <SCORE.INTER.VDW>
-16.1768

>  <SCORE.INTER.norm>
-0.697744

>  <SCORE.INTRA>
0.00460957

>  <SCORE.INTRA.DIHEDRAL>
0.0126705

>  <SCORE.INTRA.DIHEDRAL.0>
0.0330699

>  <SCORE.INTRA.POLAR>
0

>  <SCORE.INTRA.POLAR.0>
0

>  <SCORE.INTRA.REPUL>
0

>  <SCORE.INTRA.REPUL.0>
0

>  <SCORE.INTRA.VDW>
-0.00172568

>  <SCORE.INTRA.VDW.0>
0.126784

>  <SCORE.INTRA.norm>
0.000288098

>  <SCORE.RESTR>
0

>  <SCORE.RESTR.CAVITY>
0

>  <SCORE.RESTR.norm>
0

>  <SCORE.SYSTEM>
-1.51354

>  <SCORE.SYSTEM.CONST>
0

>  <SCORE.SYSTEM.DIHEDRAL>
0.378473

>  <SCORE.SYSTEM.POLAR>
-0.502804

>  <SCORE.SYSTEM.VDW>
0.0067557

>  <SCORE.SYSTEM.norm>
-0.0945963

>  <SCORE.heavy>
16

>  <SCORE.norm>
-0.792052

>  <enum_code>
T

>  <enum_smi>
C=C1NN2C(O)=C3CCCC3=NC2=C1C#N

>  <sha256>
39e1b0cb6462242f67993cb5678037f9b85a03408faf08abbd395fb60bce143b

>  <std_smi>
Cc1nn2c(O)c3c(nc2c1C#N)CCC3

>  <uuid>
91181622-e44b-4288-aa7b-809b33940e56

$$$$
91181622-e44b-4288-aa7b-809b33940e56
  rDOCK(R)          3D
libRbt.so/2013.1/901 2013/11/27
 18 20  0  0  0  0  0  0  0  0999 V2000
    1.6440   31.2489   -0.0241 C   0  0  0  0  0  0
    0.5020   31.3322    0.6650 C   0  0  0  0  0  0
   -0.0763   32.4880    1.1873 N   0  0  0  0  0  0
   -1.1261   32.1110    1.9865 N   0  0  0  0  0  0
   -2.0015   32.8799    2.7264 C   0  0  0  0  0  0
   -1.7634   34.2333    2.7996 O   0  0  0  0  0  0
   -3.0347   32.2806    3.3348 C   0  0  0  0  0  0
   -3.1270   30.7907    3.1812 C   0  0  0  0  0  0
   -2.3481   30.0167    2.4913 N   0  0  0  0  0  0
   -1.3368   30.7196    1.8765 C   0  0  0  0  0  0
   -0.3707   30.2166    1.0754 C   0  0  0  0  0  0
   -0.2074   28.8632    0.7135 C   0  0  0  0  0  0
   -0.0312   27.7600    0.3941 N   0  0  0  0  0  0
   -4.2993   30.2797    3.9625 C   0  0  0  0  0  0
   -4.5480   31.4355    4.9364 C   0  0  0  0  0  0
   -4.1514   32.7239    4.2077 C   0  0  0  0  0  0
    0.5767   33.1613    1.5820 H   0  0  0  0  0  0
   -2.2233   34.5822    3.5794 H   0  0  0  0  0  0
  1  2  2  0  0  0
  2  3  1  0  0  0
  3  4  1  0  0  0
  4  5  1  0  0  0
  5  6  1  0  0  0
  5  7  2  0  0  0
  7  8  1  0  0  0
  8  9  2  0  0  0
  9 10  1  0  0  0
 10 11  2  0  0  0
 11 12  1  0  0  0
 12 13  3  0  0  0
  8 14  1  0  0  0
 14 15  1  0  0  0
 15 16  1  0  0  0
 11  2  1  0  0  0
 10  4  1  0  0  0
 16  7  1  0  0  0
  3 17  1  0  0  0
  6 18  1  0  0  0
M  END
>  <CHROM.0>
-59.88758699,68.82322763

>  <CHROM.1>
-159.25094719,-1.65399483,31.27747641,2.24712233,-0.44207842,0.63727684,0.17159954

>  <Name>
91181622-e44b-4288-aa7b-809b33940e56

>  <RI>
2.54743e+07

>  <Rbt.Current_Directory>
/data/work/jku/5V6S/work/40/8dba899c20c42488f2b1a17844994e

>  <Rbt.Executable>
rbdock ($Id: //depot/dev/client3/rdock/2013.1/src/exe/rbdock.cxx#4 $)

>  <Rbt.Library>
libRbt.so (2013.1, Build901 2013/11/27)

>  <Rbt.Parameter_File>
/rDock_2013.1_src/data/scripts/dock.prm

>  <Rbt.Receptor>
docking.prm

>  <SCORE>
-9.7049

>  <SCORE.INTER>
-8.395

>  <SCORE.INTER.CONST>
1

>  <SCORE.INTER.POLAR>
-0.376798

>  <SCORE.INTER.REPUL>
0.0119226

>  <SCORE.INTER.ROT>
0

>  <SCORE.INTER.VDW>
-12.5735

>  <SCORE.INTER.norm>
-0.524687

>  <SCORE.INTRA>
0.20118

>  <SCORE.INTRA.DIHEDRAL>
0.569706

>  <SCORE.INTRA.DIHEDRAL.0>
0.0330699

>  <SCORE.INTRA.POLAR>
0

>  <SCORE.INTRA.POLAR.0>
0

>  <SCORE.INTRA.REPUL>
0

>  <SCORE.INTRA.REPUL.0>
0

>  <SCORE.INTRA.VDW>
-0.0836727

>  <SCORE.INTRA.VDW.0>
0.126784

>  <SCORE.INTRA.norm>
0.0125738

>  <SCORE.RESTR>
0.00254479

>  <SCORE.RESTR.CAVITY>
0.00254479

>  <SCORE.RESTR.norm>
0.000159049

>  <SCORE.SYSTEM>
-1.51363

>  <SCORE.SYSTEM.CONST>
0

>  <SCORE.SYSTEM.DIHEDRAL>
0.385018

>  <SCORE.SYSTEM.POLAR>
-0.502865

>  <SCORE.SYSTEM.VDW>
0.00359938

>  <SCORE.SYSTEM.norm>
-0.0946021

>  <SCORE.heavy>
16

>  <SCORE.norm>
-0.606556

>  <enum_code>
T

>  <enum_smi>
C=C1NN2C(O)=C3CCCC3=NC2=C1C#N

>  <sha256>
39e1b0cb6462242f67993cb5678037f9b85a03408faf08abbd395fb60bce143b

>  <std_smi>
Cc1nn2c(O)c3c(nc2c1C#N)CCC3

>  <uuid>
91181622-e44b-4288-aa7b-809b33940e56

$$$$
91181622-e44b-4288-aa7b-809b33940e56
  rDOCK(R)          3D
libRbt.so/2013.1/901 2013/11/27
 18 20  0  0  0  0  0  0  0  0999 V2000
    0.1674   32.8110    0.5458 C   0  0  0  0  0  0
   -0.2557   31.8004    1.3110 C   0  0  0  0  0  0
   -0.3847   30.4645    0.9345 N   0  0  0  0  0  0
   -1.0342   29.8016    1.9454 N   0  0  0  0  0  0
   -1.4019   28.4752    2.0466 C   0  0  0  0  0  0
   -1.2120   27.6703    0.9466 O   0  0  0  0  0  0
   -1.9224   28.0337    3.2003 C   0  0  0  0  0  0
   -2.0939   29.0527    4.2884 C   0  0  0  0  0  0
   -1.7568   30.3046    4.2603 N   0  0  0  0  0  0
   -1.2027   30.6617    3.0519 C   0  0  0  0  0  0
   -0.7338   31.8811    2.7037 C   0  0  0  0  0  0
   -0.7240   33.0345    3.5154 C   0  0  0  0  0  0
   -0.7008   34.0102    4.1460 N   0  0  0  0  0  0
   -2.7333   28.4077    5.4805 C   0  0  0  0  0  0
   -3.3563   27.1555    4.8562 C   0  0  0  0  0  0
   -2.4448   26.7357    3.6981 C   0  0  0  0  0  0
   -0.7339   30.3098   -0.0086 H   0  0  0  0  0  0
   -0.7563   28.1883    0.2646 H   0  0  0  0  0  0
  1  2  2  0  0  0
  2  3  1  0  0  0
  3  4  1  0  0  0
  4  5  1  0  0  0
  5  6  1  0  0  0
  5  7  2  0  0  0
  7  8  1  0  0  0
  8  9  2  0  0  0
  9 10  1  0  0  0
 10 11  2  0  0  0
 11 12  1  0  0  0
 12 13  3  0  0  0
  8 14  1  0  0  0
 14 15  1  0  0  0
 15 16  1  0  0  0
 11  2  1  0  0  0
 10  4  1  0  0  0
 16  7  1  0  0  0
  3 17  1  0  0  0
  6 18  1  0  0  0
M  END
>  <CHROM.0>
-59.88758699,68.96766930

>  <CHROM.1>
4.78288082,-1.36610380,29.96305313,2.89241457,-0.57551938,-1.12047209,-2.52439012

>  <Name>
91181622-e44b-4288-aa7b-809b33940e56

>  <RI>
2.54743e+07

>  <Rbt.Current_Directory>
/data/work/jku/5V6S/work/40/8dba899c20c42488f2b1a17844994e

>  <Rbt.Executable>
rbdock ($Id: //depot/dev/client3/rdock/2013.1/src/exe/rbdock.cxx#4 $)

>  <Rbt.Library>
libRbt.so (2013.1, Build901 2013/11/27)

>  <Rbt.Parameter_File>
/rDock_2013.1_src/data/scripts/dock.prm

>  <Rbt.Receptor>
docking.prm

>  <SCORE>
-14.0338

>  <SCORE.INTER>
-12.0279

>  <SCORE.INTER.CONST>
1

>  <SCORE.INTER.POLAR>
-0.851622

>  <SCORE.INTER.REPUL>
0.0968745

>  <SCORE.INTER.ROT>
0

>  <SCORE.INTER.VDW>
-15.0168

>  <SCORE.INTER.norm>
-0.751744

>  <SCORE.INTRA>
-0.49221

>  <SCORE.INTRA.DIHEDRAL>
0.000381627

>  <SCORE.INTRA.DIHEDRAL.0>
0.0330699

>  <SCORE.INTRA.POLAR>
-0.0947117

>  <SCORE.INTRA.POLAR.0>
0

>  <SCORE.INTRA.REPUL>
0

>  <SCORE.INTRA.REPUL.0>
0

>  <SCORE.INTRA.VDW>
-0.170381

>  <SCORE.INTRA.VDW.0>
0.126784

>  <SCORE.INTRA.norm>
-0.0307631

>  <SCORE.RESTR>
0

>  <SCORE.RESTR.CAVITY>
0

>  <SCORE.RESTR.norm>
0

>  <SCORE.SYSTEM>
-1.51365

>  <SCORE.SYSTEM.CONST>
0

>  <SCORE.SYSTEM.DIHEDRAL>
0.397246

>  <SCORE.SYSTEM.POLAR>
-0.502966

>  <SCORE.SYSTEM.VDW>
-0.00219222

>  <SCORE.SYSTEM.norm>
-0.0946033

>  <SCORE.heavy>
16

>  <SCORE.norm>
-0.877111

>  <enum_code>
T

>  <enum_smi>
C=C1NN2C(O)=C3CCCC3=NC2=C1C#N

>  <sha256>
39e1b0cb6462242f67993cb5678037f9b85a03408faf08abbd395fb60bce143b

>  <std_smi>
Cc1nn2c(O)c3c(nc2c1C#N)CCC3

>  <uuid>
91181622-e44b-4288-aa7b-809b33940e56

$$$$
91181622-e44b-4288-aa7b-809b33940e56
  rDOCK(R)          3D
libRbt.so/2013.1/901 2013/11/27
 18 20  0  0  0  0  0  0  0  0999 V2000
   -0.6163   24.6714    6.4997 C   0  0  0  0  0  0
   -1.7968   24.9307    5.9295 C   0  0  0  0  0  0
   -2.5131   26.1246    5.9971 N   0  0  0  0  0  0
   -3.7518   25.9057    5.4485 N   0  0  0  0  0  0
   -4.8186   26.7666    5.2892 C   0  0  0  0  0  0
   -4.7214   28.0203    5.8484 O   0  0  0  0  0  0
   -5.8917   26.3481    4.6034 C   0  0  0  0  0  0
   -5.8480   24.9385    4.0906 C   0  0  0  0  0  0
   -4.8742   24.0885    4.1947 N   0  0  0  0  0  0
   -3.8043   24.6130    4.8840 C   0  0  0  0  0  0
   -2.6310   23.9966    5.1509 C   0  0  0  0  0  0
   -2.2729   22.6850    4.7754 C   0  0  0  0  0  0
   -1.9377   21.6091    4.4923 N   0  0  0  0  0  0
   -7.1388   24.6182    3.3996 C   0  0  0  0  0  0
   -8.0687   25.6933    3.9700 C   0  0  0  0  0  0
   -7.2064   26.9322    4.2345 C   0  0  0  0  0  0
   -2.4920   26.5943    6.8995 H   0  0  0  0  0  0
   -5.5603   28.4853    5.7026 H   0  0  0  0  0  0
  1  2  2  0  0  0
  2  3  1  0  0  0
  3  4  1  0  0  0
  4  5  1  0  0  0
  5  6  1  0  0  0
  5  7  2  0  0  0
  7  8  1  0  0  0
  8  9  2  0  0  0
  9 10  1  0  0  0
 10 11  2  0  0  0
 11 12  1  0  0  0
 12 13  3  0  0  0
  8 14  1  0  0  0
 14 15  1  0  0  0
 15 16  1  0  0  0
 11  2  1  0  0  0
 10  4  1  0  0  0
 16  7  1  0  0  0
  3 17  1  0  0  0
  6 18  1  0  0  0
M  END
>  <CHROM.0>
-59.88758699,68.86755694

>  <CHROM.1>
-176.51260686,-4.27079237,25.18586076,4.94459152,-0.31374503,-0.37848691
0.37875048

>  <Name>
91181622-e44b-4288-aa7b-809b33940e56

>  <RI>
2.54743e+07

>  <Rbt.Current_Directory>
/data/work/jku/5V6S/work/40/8dba899c20c42488f2b1a17844994e

>  <Rbt.Executable>
rbdock ($Id: //depot/dev/client3/rdock/2013.1/src/exe/rbdock.cxx#4 $)

>  <Rbt.Library>
libRbt.so (2013.1, Build901 2013/11/27)

>  <Rbt.Parameter_File>
/rDock_2013.1_src/data/scripts/dock.prm

>  <Rbt.Receptor>
docking.prm

>  <SCORE>
-12.6929

>  <SCORE.INTER>
-11.1744

>  <SCORE.INTER.CONST>
1

>  <SCORE.INTER.POLAR>
-0.0810676

>  <SCORE.INTER.REPUL>
0

>  <SCORE.INTER.ROT>
0

>  <SCORE.INTER.VDW>
-16.2988

>  <SCORE.INTER.norm>
-0.698402

>  <SCORE.INTRA>
-0.00485091

>  <SCORE.INTRA.DIHEDRAL>
-0.0152501

>  <SCORE.INTRA.DIHEDRAL.0>
0.0330699

>  <SCORE.INTRA.POLAR>
0

>  <SCORE.INTRA.POLAR.0>
0

>  <SCORE.INTRA.REPUL>
0

>  <SCORE.INTRA.REPUL.0>
0

>  <SCORE.INTRA.VDW>
0.00277414

>  <SCORE.INTRA.VDW.0>
0.126784

>  <SCORE.INTRA.norm>
-0.000303182

>  <SCORE.RESTR>
0

>  <SCORE.RESTR.CAVITY>
0

>  <SCORE.RESTR.norm>
0

>  <SCORE.SYSTEM>
-1.51366

>  <SCORE.SYSTEM.CONST>
0

>  <SCORE.SYSTEM.DIHEDRAL>
0.388751

>  <SCORE.SYSTEM.POLAR>
-0.502898

>  <SCORE.SYSTEM.VDW>
0.00181684

>  <SCORE.SYSTEM.norm>
-0.0946038

>  <SCORE.heavy>
16

>  <SCORE.norm>
-0.793309

>  <enum_code>
T

>  <enum_smi>
C=C1NN2C(O)=C3CCCC3=NC2=C1C#N

>  <sha256>
39e1b0cb6462242f67993cb5678037f9b85a03408faf08abbd395fb60bce143b

>  <std_smi>
Cc1nn2c(O)c3c(nc2c1C#N)CCC3

>  <uuid>
91181622-e44b-4288-aa7b-809b33940e56

$$$$
db91abe7-bb73-4197-a249-99ceba10a115
  rDOCK(R)          3D
libRbt.so/2013.1/901 2013/11/27
 17 19  0  0  0  0  0  0  0  0999 V2000
    0.2139   32.5107   -0.3397 C   0  0  0  0  0  0
   -0.1009   31.7315    0.7037 C   0  0  0  0  0  0
   -0.0036   30.3541    0.7182 N   0  0  0  0  0  0
   -0.6833   29.8698    1.8173 N   0  0  0  0  0  0
   -0.8992   28.5289    2.0575 C   0  0  0  0  0  0
   -0.5969   27.5990    1.3214 O   0  0  0  0  0  0
   -1.5796   28.3388    3.3455 C   0  0  0  0  0  0
   -1.8992   29.4006    4.0955 C   0  0  0  0  0  0
   -1.6615   30.7181    3.7972 N   0  0  0  0  0  0
   -1.0694   30.9029    2.6558 C   0  0  0  0  0  0
   -0.6744   32.2253    2.0413 C   0  0  0  0  0  0
   -1.8457   33.0862    1.8683 C   0  0  0  0  0  0
   -2.7554   33.7918    1.7100 N   0  0  0  0  0  0
   -2.5816   28.9789    5.3555 C   0  0  0  0  0  0
   -2.9203   27.5088    5.0708 C   0  0  0  0  0  0
   -1.9812   27.0481    3.9491 C   0  0  0  0  0  0
   -0.1840   29.8655   -0.1607 H   0  0  0  0  0  0
  1  2  2  0  0  0
  2  3  1  0  0  0
  3  4  1  0  0  0
  4  5  1  0  0  0
  5  6  2  0  0  0
  5  7  1  0  0  0
  7  8  2  0  0  0
  8  9  1  0  0  0
  9 10  2  0  0  0
 10 11  1  0  0  0
 11 12  1  0  0  0
 12 13  3  0  0  0
  8 14  1  0  0  0
 14 15  1  0  0  0
 15 16  1  0  0  0
 11  2  1  0  0  0
 10  4  1  0  0  0
 16  7  1  0  0  0
  3 17  1  0  0  0
M  END
>  <CHROM.0>
-59.88758699,68.73419420

>  <CHROM.1>
-1.31066712,30.11744763,2.49250295,-1.17433111,-0.96244827,2.85812671

>  <Name>
db91abe7-bb73-4197-a249-99ceba10a115

>  <RI>
1.25187e+07

>  <Rbt.Current_Directory>
/data/work/jku/5V6S/work/40/8dba899c20c42488f2b1a17844994e

>  <Rbt.Executable>
rbdock ($Id: //depot/dev/client3/rdock/2013.1/src/exe/rbdock.cxx#4 $)

>  <Rbt.Library>
libRbt.so (2013.1, Build901 2013/11/27)

>  <Rbt.Parameter_File>
/rDock_2013.1_src/data/scripts/dock.prm

>  <Rbt.Receptor>
docking.prm

>  <SCORE>
-16.6401

>  <SCORE.INTER>
-15.1266

>  <SCORE.INTER.CONST>
1

>  <SCORE.INTER.POLAR>
-0.935414

>  <SCORE.INTER.REPUL>
4.92352e-05

>  <SCORE.INTER.ROT>
0

>  <SCORE.INTER.VDW>
-17.3464

>  <SCORE.INTER.norm>
-0.94541

>  <SCORE.INTRA>
0

>  <SCORE.INTRA.DIHEDRAL>
0

>  <SCORE.INTRA.DIHEDRAL.0>
0

>  <SCORE.INTRA.POLAR>
0

>  <SCORE.INTRA.POLAR.0>
0

>  <SCORE.INTRA.REPUL>
0

>  <SCORE.INTRA.REPUL.0>
0

>  <SCORE.INTRA.VDW>
0

>  <SCORE.INTRA.VDW.0>
0

>  <SCORE.INTRA.norm>
0

>  <SCORE.RESTR>
0

>  <SCORE.RESTR.CAVITY>
0

>  <SCORE.RESTR.norm>
0

>  <SCORE.SYSTEM>
-1.51352

>  <SCORE.SYSTEM.CONST>
0

>  <SCORE.SYSTEM.DIHEDRAL>
0.377573

>  <SCORE.SYSTEM.POLAR>
-0.502795

>  <SCORE.SYSTEM.VDW>
0.00719318

>  <SCORE.SYSTEM.norm>
-0.0945952

>  <SCORE.heavy>
16

>  <SCORE.norm>
-1.04

>  <enum_code>
T

>  <enum_smi>
C=C1Nn2c(nc3c(c2=O)CCC3)C1C#N

>  <sha256>
39e1b0cb6462242f67993cb5678037f9b85a03408faf08abbd395fb60bce143b

>  <std_smi>
Cc1nn2c(O)c3c(nc2c1C#N)CCC3

>  <uuid>
db91abe7-bb73-4197-a249-99ceba10a115

$$$$
db91abe7-bb73-4197-a249-99ceba10a115
  rDOCK(R)          3D
libRbt.so/2013.1/901 2013/11/27
 17 19  0  0  0  0  0  0  0  0999 V2000
    0.2311   32.5509   -0.2497 C   0  0  0  0  0  0
   -0.0930   31.7549    0.7781 C   0  0  0  0  0  0
   -0.0184   30.3761    0.7629 N   0  0  0  0  0  0
   -0.7024   29.8796    1.8538 N   0  0  0  0  0  0
   -0.9396   28.5376    2.0662 C   0  0  0  0  0  0
   -0.6550   27.6188    1.3093 O   0  0  0  0  0  0
   -1.6188   28.3313    3.3523 C   0  0  0  0  0  0
   -1.9184   29.3819    4.1259 C   0  0  0  0  0  0
   -1.6601   30.7014    3.8549 N   0  0  0  0  0  0
   -1.0687   30.9008    2.7155 C   0  0  0  0  0  0
   -0.6539   32.2294    2.1279 C   0  0  0  0  0  0
   -1.8115   33.1129    1.9775 C   0  0  0  0  0  0
   -2.7099   33.8365    1.8376 N   0  0  0  0  0  0
   -2.6035   28.9446    5.3791 C   0  0  0  0  0  0
   -2.9674   27.4867    5.0644 C   0  0  0  0  0  0
   -2.0397   27.0347    3.9297 C   0  0  0  0  0  0
   -0.2097   29.9094   -0.1256 H   0  0  0  0  0  0
  1  2  2  0  0  0
  2  3  1  0  0  0
  3  4  1  0  0  0
  4  5  1  0  0  0
  5  6  2  0  0  0
  5  7  1  0  0  0
  7  8  2  0  0  0
  8  9  1  0  0  0
  9 10  2  0  0  0
 10 11  1  0  0  0
 11 12  1  0  0  0
 12 13  3  0  0  0
  8 14  1  0  0  0
 14 15  1  0  0  0
 15 16  1  0  0  0
 11  2  1  0  0  0
 10  4  1  0  0  0
 16  7  1  0  0  0
  3 17  1  0  0  0
M  END
>  <CHROM.0>
-59.88758699,68.67250233

>  <CHROM.1>
-1.32337576,30.12305511,2.53640614,-1.14795718,-0.97002668,2.90115838

>  <Name>
db91abe7-bb73-4197-a249-99ceba10a115

>  <RI>
1.25187e+07

>  <Rbt.Current_Directory>
/data/work/jku/5V6S/work/40/8dba899c20c42488f2b1a17844994e

>  <Rbt.Executable>
rbdock ($Id: //depot/dev/client3/rdock/2013.1/src/exe/rbdock.cxx#4 $)

>  <Rbt.Library>
libRbt.so (2013.1, Build901 2013/11/27)

>  <Rbt.Parameter_File>
/rDock_2013.1_src/data/scripts/dock.prm

>  <Rbt.Receptor>
docking.prm

>  <SCORE>
-16.5794

>  <SCORE.INTER>
-15.066

>  <SCORE.INTER.CONST>
1

>  <SCORE.INTER.POLAR>
-0.934981

>  <SCORE.INTER.REPUL>
0.00890844

>  <SCORE.INTER.ROT>
0

>  <SCORE.INTER.VDW>
-17.3316

>  <SCORE.INTER.norm>
-0.941624

>  <SCORE.INTRA>
0

>  <SCORE.INTRA.DIHEDRAL>
0

>  <SCORE.INTRA.DIHEDRAL.0>
0

>  <SCORE.INTRA.POLAR>
0

>  <SCORE.INTRA.POLAR.0>
0

>  <SCORE.INTRA.REPUL>
0

>  <SCORE.INTRA.REPUL.0>
0

>  <SCORE.INTRA.VDW>
0

>  <SCORE.INTRA.VDW.0>
0

>  <SCORE.INTRA.norm>
0

>  <SCORE.RESTR>
0

>  <SCORE.RESTR.CAVITY>
0

>  <SCORE.RESTR.norm>
0

>  <SCORE.SYSTEM>
-1.5134

>  <SCORE.SYSTEM.CONST>
0

>  <SCORE.SYSTEM.DIHEDRAL>
0.372455

>  <SCORE.SYSTEM.POLAR>
-0.502742

>  <SCORE.SYSTEM.VDW>
0.00969407

>  <SCORE.SYSTEM.norm>
-0.0945876

>  <SCORE.heavy>
16

>  <SCORE.norm>
-1.03621

>  <enum_code>
T

>  <enum_smi>
C=C1Nn2c(nc3c(c2=O)CCC3)C1C#N

>  <sha256>
39e1b0cb6462242f67993cb5678037f9b85a03408faf08abbd395fb60bce143b

>  <std_smi>
Cc1nn2c(O)c3c(nc2c1C#N)CCC3

>  <uuid>
db91abe7-bb73-4197-a249-99ceba10a115

$$$$
db91abe7-bb73-4197-a249-99ceba10a115
  rDOCK(R)          3D
libRbt.so/2013.1/901 2013/11/27
 17 19  0  0  0  0  0  0  0  0999 V2000
   -0.5054   21.8966    3.4241 C   0  0  0  0  0  0
   -1.5299   22.6412    3.8609 C   0  0  0  0  0  0
   -2.8473   22.4707    3.4834 N   0  0  0  0  0  0
   -3.5716   23.5776    3.8768 N   0  0  0  0  0  0
   -4.8908   23.7930    3.5367 C   0  0  0  0  0  0
   -5.5757   23.0974    2.7984 O   0  0  0  0  0  0
   -5.3948   25.0160    4.1755 C   0  0  0  0  0  0
   -4.5876   25.7424    4.9583 C   0  0  0  0  0  0
   -3.2749   25.4774    5.2550 N   0  0  0  0  0  0
   -2.8117   24.4039    4.6886 C   0  0  0  0  0  0
   -1.4137   23.8440    4.8103 C   0  0  0  0  0  0
   -0.4230   24.8232    4.3602 C   0  0  0  0  0  0
    0.3889   25.5740    4.0030 N   0  0  0  0  0  0
   -5.3019   26.9372    5.5000 C   0  0  0  0  0  0
   -6.5690   26.9843    4.6343 C   0  0  0  0  0  0
   -6.7587   25.5782    4.0518 C   0  0  0  0  0  0
   -3.0201   22.1484    2.5295 H   0  0  0  0  0  0
  1  2  2  0  0  0
  2  3  1  0  0  0
  3  4  1  0  0  0
  4  5  1  0  0  0
  5  6  2  0  0  0
  5  7  1  0  0  0
  7  8  2  0  0  0
  8  9  1  0  0  0
  9 10  2  0  0  0
 10 11  1  0  0  0
 11 12  1  0  0  0
 12 13  3  0  0  0
  8 14  1  0  0  0
 14 15  1  0  0  0
 15 16  1  0  0  0
 11  2  1  0  0  0
 10  4  1  0  0  0
 16  7  1  0  0  0
  3 17  1  0  0  0
M  END
>  <CHROM.0>
-59.88758699,67.73674172

>  <CHROM.1>
-3.47885268,24.47529482,4.18703126,0.43171924,0.10422357,-2.70802952

>  <Name>
db91abe7-bb73-4197-a249-99ceba10a115

>  <RI>
1.25187e+07

>  <Rbt.Current_Directory>
/data/work/jku/5V6S/work/40/8dba899c20c42488f2b1a17844994e

>  <Rbt.Executable>
rbdock ($Id: //depot/dev/client3/rdock/2013.1/src/exe/rbdock.cxx#4 $)

>  <Rbt.Library>
libRbt.so (2013.1, Build901 2013/11/27)

>  <Rbt.Parameter_File>
/rDock_2013.1_src/data/scripts/dock.prm

>  <Rbt.Receptor>
docking.prm

>  <SCORE>
-13.0102

>  <SCORE.INTER>
-11.5031

>  <SCORE.INTER.CONST>
1

>  <SCORE.INTER.POLAR>
0

>  <SCORE.INTER.REPUL>
0

>  <SCORE.INTER.ROT>
0

>  <SCORE.INTER.VDW>
-16.9031

>  <SCORE.INTER.norm>
-0.718944

>  <SCORE.INTRA>
0

>  <SCORE.INTRA.DIHEDRAL>
0

>  <SCORE.INTRA.DIHEDRAL.0>
0

>  <SCORE.INTRA.POLAR>
0

>  <SCORE.INTRA.POLAR.0>
0

>  <SCORE.INTRA.REPUL>
0

>  <SCORE.INTRA.REPUL.0>
0

>  <SCORE.INTRA.VDW>
0

>  <SCORE.INTRA.VDW.0>
0

>  <SCORE.INTRA.norm>
0

>  <SCORE.RESTR>
0

>  <SCORE.RESTR.CAVITY>
0

>  <SCORE.RESTR.norm>
0

>  <SCORE.SYSTEM>
-1.50709

>  <SCORE.SYSTEM.CONST>
0

>  <SCORE.SYSTEM.DIHEDRAL>
0.298997

>  <SCORE.SYSTEM.POLAR>
-0.501562

>  <SCORE.SYSTEM.VDW>
0.0487194

>  <SCORE.SYSTEM.norm>
-0.0941933

>  <SCORE.heavy>
16

>  <SCORE.norm>
-0.813137

>  <enum_code>
T

>  <enum_smi>
C=C1Nn2c(nc3c(c2=O)CCC3)C1C#N

>  <sha256>
39e1b0cb6462242f67993cb5678037f9b85a03408faf08abbd395fb60bce143b

>  <std_smi>
Cc1nn2c(O)c3c(nc2c1C#N)CCC3

>  <uuid>
db91abe7-bb73-4197-a249-99ceba10a115

$$$$
db91abe7-bb73-4197-a249-99ceba10a115
  rDOCK(R)          3D
libRbt.so/2013.1/901 2013/11/27
 17 19  0  0  0  0  0  0  0  0999 V2000
    0.1837   32.4888   -0.2796 C   0  0  0  0  0  0
   -0.1231   31.7127    0.7685 C   0  0  0  0  0  0
    0.0280   30.3406    0.8058 N   0  0  0  0  0  0
   -0.6562   29.8453    1.8972 N   0  0  0  0  0  0
   -0.8243   28.5004    2.1529 C   0  0  0  0  0  0
   -0.4694   27.5729    1.4375 O   0  0  0  0  0  0
   -1.5250   28.3018    3.4286 C   0  0  0  0  0  0
   -1.9026   29.3606    4.1555 C   0  0  0  0  0  0
   -1.7105   30.6822    3.8426 N   0  0  0  0  0  0
   -1.1011   30.8740    2.7115 C   0  0  0  0  0  0
   -0.7449   32.2023    2.0858 C   0  0  0  0  0  0
   -1.9452   33.0134    1.8747 C   0  0  0  0  0  0
   -2.8782   33.6800    1.6863 N   0  0  0  0  0  0
   -2.5955   28.9300    5.4068 C   0  0  0  0  0  0
   -2.8697   27.4437    5.1371 C   0  0  0  0  0  0
   -1.8887   27.0048    4.0428 C   0  0  0  0  0  0
   -0.1135   29.8327   -0.0693 H   0  0  0  0  0  0
  1  2  2  0  0  0
  2  3  1  0  0  0
  3  4  1  0  0  0
  4  5  1  0  0  0
  5  6  2  0  0  0
  5  7  1  0  0  0
  7  8  2  0  0  0
  8  9  1  0  0  0
  9 10  2  0  0  0
 10 11  1  0  0  0
 11 12  1  0  0  0
 12 13  3  0  0  0
  8 14  1  0  0  0
 14 15  1  0  0  0
 15 16  1  0  0  0
 11  2  1  0  0  0
 10  4  1  0  0  0
 16  7  1  0  0  0
  3 17  1  0  0  0
M  END
>  <CHROM.0>
-59.88758699,68.88707776

>  <CHROM.1>
-1.30751645,30.07739694,2.55493409,-1.22724457,-0.92954605,2.80055931

>  <Name>
db91abe7-bb73-4197-a249-99ceba10a115

>  <RI>
1.25187e+07

>  <Rbt.Current_Directory>
/data/work/jku/5V6S/work/40/8dba899c20c42488f2b1a17844994e

>  <Rbt.Executable>
rbdock ($Id: //depot/dev/client3/rdock/2013.1/src/exe/rbdock.cxx#4 $)

>  <Rbt.Library>
libRbt.so (2013.1, Build901 2013/11/27)

>  <Rbt.Parameter_File>
/rDock_2013.1_src/data/scripts/dock.prm

>  <Rbt.Receptor>
docking.prm

>  <SCORE>
-16.6583

>  <SCORE.INTER>
-15.1446

>  <SCORE.INTER.CONST>
1

>  <SCORE.INTER.POLAR>
-0.935414

>  <SCORE.INTER.REPUL>
0

>  <SCORE.INTER.ROT>
0

>  <SCORE.INTER.VDW>
-17.3642

>  <SCORE.INTER.norm>
-0.946539

>  <SCORE.INTRA>
0

>  <SCORE.INTRA.DIHEDRAL>
0

>  <SCORE.INTRA.DIHEDRAL.0>
0

>  <SCORE.INTRA.POLAR>
0

>  <SCORE.INTRA.POLAR.0>
0

>  <SCORE.INTRA.REPUL>
0

>  <SCORE.INTRA.REPUL.0>
0

>  <SCORE.INTRA.VDW>
0

>  <SCORE.INTRA.VDW.0>
0

>  <SCORE.INTRA.norm>
0

>  <SCORE.RESTR>
0

>  <SCORE.RESTR.CAVITY>
0

>  <SCORE.RESTR.norm>
0

>  <SCORE.SYSTEM>
-1.51367

>  <SCORE.SYSTEM.CONST>
0

>  <SCORE.SYSTEM.DIHEDRAL>
0.390401

>  <SCORE.SYSTEM.POLAR>
-0.502912

>  <SCORE.SYSTEM.VDW>
0.00103332

>  <SCORE.SYSTEM.norm>
-0.0946041

>  <SCORE.heavy>
16

>  <SCORE.norm>
-1.04114

>  <enum_code>
T

>  <enum_smi>
C=C1Nn2c(nc3c(c2=O)CCC3)C1C#N

>  <sha256>
39e1b0cb6462242f67993cb5678037f9b85a03408faf08abbd395fb60bce143b

>  <std_smi>
Cc1nn2c(O)c3c(nc2c1C#N)CCC3

>  <uuid>
db91abe7-bb73-4197-a249-99ceba10a115

$$$$
db91abe7-bb73-4197-a249-99ceba10a115
  rDOCK(R)          3D
libRbt.so/2013.1/901 2013/11/27
 17 19  0  0  0  0  0  0  0  0999 V2000
    0.1901   32.4899   -0.2808 C   0  0  0  0  0  0
   -0.1192   31.7134    0.7663 C   0  0  0  0  0  0
    0.0271   30.3407    0.8017 N   0  0  0  0  0  0
   -0.6586   29.8464    1.8925 N   0  0  0  0  0  0
   -0.8314   28.5018    2.1464 C   0  0  0  0  0  0
   -0.4799   27.5740    1.4297 O   0  0  0  0  0  0
   -1.5325   28.3038    3.4221 C   0  0  0  0  0  0
   -1.9062   29.3630    4.1505 C   0  0  0  0  0  0
   -1.7095   30.6843    3.8394 N   0  0  0  0  0  0
   -1.0996   30.8756    2.7084 C   0  0  0  0  0  0
   -0.7389   32.2034    2.0844 C   0  0  0  0  0  0
   -1.9364   33.0190    1.8748 C   0  0  0  0  0  0
   -2.8671   33.6892    1.6875 N   0  0  0  0  0  0
   -2.6003   28.9331    5.4014 C   0  0  0  0  0  0
   -2.8798   27.4482    5.1296 C   0  0  0  0  0  0
   -1.9006   27.0073    4.0346 C   0  0  0  0  0  0
   -0.1164   29.8346   -0.0741 H   0  0  0  0  0  0
  1  2  2  0  0  0
  2  3  1  0  0  0
  3  4  1  0  0  0
  4  5  1  0  0  0
  5  6  2  0  0  0
  5  7  1  0  0  0
  7  8  2  0  0  0
  8  9  1  0  0  0
  9 10  2  0  0  0
 10 11  1  0  0  0
 11 12  1  0  0  0
 12 13  3  0  0  0
  8 14  1  0  0  0
 14 15  1  0  0  0
 15 16  1  0  0  0
 11  2  1  0  0  0
 10  4  1  0  0  0
 16  7  1  0  0  0
  3 17  1  0  0  0
M  END
>  <CHROM.0>
-59.88758699,69.06734962

>  <CHROM.1>
-1.30892143,30.07986495,2.55076627,-1.22181677,-0.93094238,2.80628664

>  <Name>
db91abe7-bb73-4197-a249-99ceba10a115

>  <RI>
1.25187e+07

>  <Rbt.Current_Directory>
/data/work/jku/5V6S/work/40/8dba899c20c42488f2b1a17844994e

>  <Rbt.Executable>
rbdock ($Id: //depot/dev/client3/rdock/2013.1/src/exe/rbdock.cxx#4 $)

>  <Rbt.Library>
libRbt.so (2013.1, Build901 2013/11/27)

>  <Rbt.Parameter_File>
/rDock_2013.1_src/data/scripts/dock.prm

>  <Rbt.Receptor>
docking.prm

>  <SCORE>
-16.659

>  <SCORE.INTER>
-15.1454

>  <SCORE.INTER.CONST>
1

>  <SCORE.INTER.POLAR>
-0.935414

>  <SCORE.INTER.REPUL>
5.20054e-05

>  <SCORE.INTER.ROT>
0

>  <SCORE.INTER.VDW>
-17.3653

>  <SCORE.INTER.norm>
-0.946589

>  <SCORE.INTRA>
0

>  <SCORE.INTRA.DIHEDRAL>
0

>  <SCORE.INTRA.DIHEDRAL.0>
0

>  <SCORE.INTRA.POLAR>
0

>  <SCORE.INTRA.POLAR.0>
0

>  <SCORE.INTRA.REPUL>
0

>  <SCORE.INTRA.REPUL.0>
0

>  <SCORE.INTRA.VDW>
0

>  <SCORE.INTRA.VDW.0>
0

>  <SCORE.INTRA.norm>
0

>  <SCORE.RESTR>
0

>  <SCORE.RESTR.CAVITY>
0

>  <SCORE.RESTR.norm>
0

>  <SCORE.SYSTEM>
-1.51355

>  <SCORE.SYSTEM.CONST>
0

>  <SCORE.SYSTEM.DIHEDRAL>
0.405791

>  <SCORE.SYSTEM.POLAR>
-0.503025

>  <SCORE.SYSTEM.VDW>
-0.00616123

>  <SCORE.SYSTEM.norm>
-0.094597

>  <SCORE.heavy>
16

>  <SCORE.norm>
-1.04119

>  <enum_code>
T

>  <enum_smi>
C=C1Nn2c(nc3c(c2=O)CCC3)C1C#N

>  <sha256>
39e1b0cb6462242f67993cb5678037f9b85a03408faf08abbd395fb60bce143b

>  <std_smi>
Cc1nn2c(O)c3c(nc2c1C#N)CCC3

>  <uuid>
db91abe7-bb73-4197-a249-99ceba10a115

$$$$
19cc9512-616f-4fbd-b27c-987dbe3b8f5a
  rDOCK(R)          3D
libRbt.so/2013.1/901 2013/11/27
 18 20  0  0  0  0  0  0  0  0999 V2000
   -8.2623   27.2257    4.0984 C   0  0  0  0  0  0
   -6.9036   26.7091    4.4384 C   0  0  0  0  0  0
   -5.9114   27.6034    4.8998 N   0  0  0  0  0  0
   -4.8079   26.8505    5.2142 N   0  0  0  0  0  0
   -3.5615   27.1991    5.6745 C   0  0  0  0  0  0
   -3.2633   28.5204    5.8670 O   0  0  0  0  0  0
   -2.6819   26.2119    5.8832 C   0  0  0  0  0  0
   -3.0544   24.8367    5.6017 C   0  0  0  0  0  0
   -4.2865   24.5010    5.0946 N   0  0  0  0  0  0
   -5.0908   25.5104    4.9219 C   0  0  0  0  0  0
   -6.4762   25.4261    4.3870 C   0  0  0  0  0  0
   -7.1603   24.2627    4.0025 C   0  0  0  0  0  0
   -7.7765   23.3345    3.6763 N   0  0  0  0  0  0
   -2.0471   24.0109    5.8801 C   0  0  0  0  0  0
   -0.8535   24.7544    6.3953 C   0  0  0  0  0  0
   -1.2698   26.2363    6.3703 C   0  0  0  0  0  0
   -6.2680   28.1777    5.6681 H   0  0  0  0  0  0
   -4.0858   28.9795    5.6218 H   0  0  0  0  0  0
  1  2  1  0  0  0
  2  3  1  0  0  0
  3  4  1  0  0  0
  4  5  1  0  0  0
  5  6  1  0  0  0
  5  7  2  0  0  0
  7  8  1  0  0  0
  8  9  1  0  0  0
  9 10  2  0  0  0
 10 11  1  0  0  0
 11 12  1  0  0  0
 12 13  3  0  0  0
  8 14  2  0  0  0
 14 15  1  0  0  0
 15 16  1  0  0  0
 11  2  2  0  0  0
 10  4  1  0  0  0
 16  7  1  0  0  0
  3 17  1  0  0  0
  6 18  1  0  0  0
M  END
>  <CHROM.0>
-59.88758699,69.12662854

>  <CHROM.1>
0.72487621,-4.58364332,25.89632714,5.16411640,3.08663488,0.33963339,-3.01956872

>  <Name>
19cc9512-616f-4fbd-b27c-987dbe3b8f5a

>  <RI>
3.87904e+07

>  <Rbt.Current_Directory>
/data/work/jku/5V6S/work/40/8dba899c20c42488f2b1a17844994e

>  <Rbt.Executable>
rbdock ($Id: //depot/dev/client3/rdock/2013.1/src/exe/rbdock.cxx#4 $)

>  <Rbt.Library>
libRbt.so (2013.1, Build901 2013/11/27)

>  <Rbt.Parameter_File>
/rDock_2013.1_src/data/scripts/dock.prm

>  <Rbt.Receptor>
docking.prm

>  <SCORE>
-12.463

>  <SCORE.INTER>
-10.624

>  <SCORE.INTER.CONST>
1

>  <SCORE.INTER.POLAR>
0

>  <SCORE.INTER.REPUL>
0

>  <SCORE.INTER.ROT>
0

>  <SCORE.INTER.VDW>
-16.024

>  <SCORE.INTER.norm>
-0.664

>  <SCORE.INTRA>
-0.325545

>  <SCORE.INTRA.DIHEDRAL>
-0.361865

>  <SCORE.INTRA.DIHEDRAL.0>
0.362873

>  <SCORE.INTRA.POLAR>
-0.0494764

>  <SCORE.INTRA.POLAR.0>
-0.0926156

>  <SCORE.INTRA.REPUL>
0

>  <SCORE.INTRA.REPUL.0>
0

>  <SCORE.INTRA.VDW>
0.0236071

>  <SCORE.INTRA.VDW.0>
-0.0248484

>  <SCORE.INTRA.norm>
-0.0203466

>  <SCORE.RESTR>
0

>  <SCORE.RESTR.CAVITY>
0

>  <SCORE.RESTR.norm>
0

>  <SCORE.SYSTEM>
-1.51345

>  <SCORE.SYSTEM.CONST>
0

>  <SCORE.SYSTEM.DIHEDRAL>
0.410914

>  <SCORE.SYSTEM.POLAR>
-0.503057

>  <SCORE.SYSTEM.VDW>
-0.00851082

>  <SCORE.SYSTEM.norm>
-0.0945904

>  <SCORE.heavy>
16

>  <SCORE.norm>
-0.778937

>  <enum_code>
T

>  <enum_smi>
CC1=C(C#N)C2=NC3=CCCC3=C(O)N2N1

>  <sha256>
39e1b0cb6462242f67993cb5678037f9b85a03408faf08abbd395fb60bce143b

>  <std_smi>
Cc1nn2c(O)c3c(nc2c1C#N)CCC3

>  <uuid>
19cc9512-616f-4fbd-b27c-987dbe3b8f5a

$$$$
19cc9512-616f-4fbd-b27c-987dbe3b8f5a
  rDOCK(R)          3D
libRbt.so/2013.1/901 2013/11/27
 18 20  0  0  0  0  0  0  0  0999 V2000
   -0.0057   22.4854    4.0514 C   0  0  0  0  0  0
   -1.1551   23.4254    4.2049 C   0  0  0  0  0  0
   -2.4227   23.0691    3.6915 N   0  0  0  0  0  0
   -3.2949   24.0665    4.0489 N   0  0  0  0  0  0
   -4.6319   24.2499    3.7928 C   0  0  0  0  0  0
   -5.3009   23.3309    3.0313 O   0  0  0  0  0  0
   -5.2093   25.3528    4.2847 C   0  0  0  0  0  0
   -4.4192   26.3116    5.0369 C   0  0  0  0  0  0
   -3.0715   26.1454    5.2466 N   0  0  0  0  0  0
   -2.5796   25.0493    4.7445 C   0  0  0  0  0  0
   -1.1554   24.6278    4.8260 C   0  0  0  0  0  0
   -0.1111   25.3114    5.4674 C   0  0  0  0  0  0
    0.7892   25.8290    5.9863 N   0  0  0  0  0  0
   -5.1767   27.3295    5.4419 C   0  0  0  0  0  0
   -6.5981   27.1666    4.9993 C   0  0  0  0  0  0
   -6.6143   25.8528    4.1971 C   0  0  0  0  0  0
   -2.6931   22.1338    4.0068 H   0  0  0  0  0  0
   -4.6154   22.6783    2.8041 H   0  0  0  0  0  0
  1  2  1  0  0  0
  2  3  1  0  0  0
  3  4  1  0  0  0
  4  5  1  0  0  0
  5  6  1  0  0  0
  5  7  2  0  0  0
  7  8  1  0  0  0
  8  9  1  0  0  0
  9 10  2  0  0  0
 10 11  1  0  0  0
 11 12  1  0  0  0
 12 13  3  0  0  0
  8 14  2  0  0  0
 14 15  1  0  0  0
 15 16  1  0  0  0
 11  2  2  0  0  0
 10  4  1  0  0  0
 16  7  1  0  0  0
  3 17  1  0  0  0
  6 18  1  0  0  0
M  END
>  <CHROM.0>
-59.88758699,69.01871319

>  <CHROM.1>
-0.42228364,-3.21338032,24.91785975,4.53032079,0.26771483,0.21218210,-2.63198042

>  <Name>
19cc9512-616f-4fbd-b27c-987dbe3b8f5a

>  <RI>
3.87904e+07

>  <Rbt.Current_Directory>
/data/work/jku/5V6S/work/40/8dba899c20c42488f2b1a17844994e

>  <Rbt.Executable>
rbdock ($Id: //depot/dev/client3/rdock/2013.1/src/exe/rbdock.cxx#4 $)

>  <Rbt.Library>
libRbt.so (2013.1, Build901 2013/11/27)

>  <Rbt.Parameter_File>
/rDock_2013.1_src/data/scripts/dock.prm

>  <Rbt.Receptor>
docking.prm

>  <SCORE>
-11.7469

>  <SCORE.INTER>
-9.90549

>  <SCORE.INTER.CONST>
1

>  <SCORE.INTER.POLAR>
0

>  <SCORE.INTER.REPUL>
0

>  <SCORE.INTER.ROT>
0

>  <SCORE.INTER.VDW>
-15.3055

>  <SCORE.INTER.norm>
-0.619093

>  <SCORE.INTRA>
-0.327824

>  <SCORE.INTRA.DIHEDRAL>
-0.359608

>  <SCORE.INTRA.DIHEDRAL.0>
0.362873

>  <SCORE.INTRA.POLAR>
-0.0503798

>  <SCORE.INTRA.POLAR.0>
-0.0926156

>  <SCORE.INTRA.REPUL>
0

>  <SCORE.INTRA.REPUL.0>
0

>  <SCORE.INTRA.VDW>
0.0232711

>  <SCORE.INTRA.VDW.0>
-0.0248484

>  <SCORE.INTRA.norm>
-0.020489

>  <SCORE.RESTR>
0

>  <SCORE.RESTR.CAVITY>
0

>  <SCORE.RESTR.norm>
0

>  <SCORE.SYSTEM>
-1.51361

>  <SCORE.SYSTEM.CONST>
0

>  <SCORE.SYSTEM.DIHEDRAL>
0.401611

>  <SCORE.SYSTEM.POLAR>
-0.502997

>  <SCORE.SYSTEM.VDW>
-0.00422749

>  <SCORE.SYSTEM.norm>
-0.0946008

>  <SCORE.heavy>
16

>  <SCORE.norm>
-0.734183

>  <enum_code>
T

>  <enum_smi>
CC1=C(C#N)C2=NC3=CCCC3=C(O)N2N1

>  <sha256>
39e1b0cb6462242f67993cb5678037f9b85a03408faf08abbd395fb60bce143b

>  <std_smi>
Cc1nn2c(O)c3c(nc2c1C#N)CCC3

>  <uuid>
19cc9512-616f-4fbd-b27c-987dbe3b8f5a

$$$$
19cc9512-616f-4fbd-b27c-987dbe3b8f5a
  rDOCK(R)          3D
libRbt.so/2013.1/901 2013/11/27
 18 20  0  0  0  0  0  0  0  0999 V2000
   -1.0775   24.7643    6.9818 C   0  0  0  0  0  0
   -1.1328   25.7475    5.8599 C   0  0  0  0  0  0
   -1.5484   27.0743    6.1134 N   0  0  0  0  0  0
   -1.4189   27.7669    4.9358 N   0  0  0  0  0  0
   -1.7038   29.0686    4.6022 C   0  0  0  0  0  0
   -2.2381   29.9013    5.5473 O   0  0  0  0  0  0
   -1.4681   29.4486    3.3406 C   0  0  0  0  0  0
   -0.9521   28.4905    2.3786 C   0  0  0  0  0  0
   -0.7164   27.1775    2.7075 N   0  0  0  0  0  0
   -0.9633   26.8812    3.9512 C   0  0  0  0  0  0
   -0.7958   25.5372    4.5662 C   0  0  0  0  0  0
   -0.3276   24.3752    3.9340 C   0  0  0  0  0  0
    0.0589   23.3858    3.4655 N   0  0  0  0  0  0
   -0.7814   29.0648    1.1891 C   0  0  0  0  0  0
   -1.1704   30.5108    1.2163 C   0  0  0  0  0  0
   -1.6591   30.7618    2.6544 C   0  0  0  0  0  0
   -1.0311   27.4733    6.9011 H   0  0  0  0  0  0
   -2.1542   30.7852    5.1483 H   0  0  0  0  0  0
  1  2  1  0  0  0
  2  3  1  0  0  0
  3  4  1  0  0  0
  4  5  1  0  0  0
  5  6  1  0  0  0
  5  7  2  0  0  0
  7  8  1  0  0  0
  8  9  1  0  0  0
  9 10  2  0  0  0
 10 11  1  0  0  0
 11 12  1  0  0  0
 12 13  3  0  0  0
  8 14  2  0  0  0
 14 15  1  0  0  0
 15 16  1  0  0  0
 11  2  2  0  0  0
 10  4  1  0  0  0
 16  7  1  0  0  0
  3 17  1  0  0  0
  6 18  1  0  0  0
M  END
>  <CHROM.0>
-59.88758699,69.49027681

>  <CHROM.1>
167.36093678,-1.13922694,27.54255451,4.01806509,1.21803547,-1.22158011,2.33533916

>  <Name>
19cc9512-616f-4fbd-b27c-987dbe3b8f5a

>  <RI>
3.87904e+07

>  <Rbt.Current_Directory>
/data/work/jku/5V6S/work/40/8dba899c20c42488f2b1a17844994e

>  <Rbt.Executable>
rbdock ($Id: //depot/dev/client3/rdock/2013.1/src/exe/rbdock.cxx#4 $)

>  <Rbt.Library>
libRbt.so (2013.1, Build901 2013/11/27)

>  <Rbt.Parameter_File>
/rDock_2013.1_src/data/scripts/dock.prm

>  <Rbt.Receptor>
docking.prm

>  <SCORE>
-11.9429

>  <SCORE.INTER>
-11.2566

>  <SCORE.INTER.CONST>
1

>  <SCORE.INTER.POLAR>
0

>  <SCORE.INTER.REPUL>
0

>  <SCORE.INTER.ROT>
0

>  <SCORE.INTER.VDW>
-16.6566

>  <SCORE.INTER.norm>
-0.70354

>  <SCORE.INTRA>
0.825868

>  <SCORE.INTRA.DIHEDRAL>
-0.101784

>  <SCORE.INTRA.DIHEDRAL.0>
0.362873

>  <SCORE.INTRA.POLAR>
0.0926156

>  <SCORE.INTRA.POLAR.0>
-0.0926156

>  <SCORE.INTRA.REPUL>
0

>  <SCORE.INTRA.REPUL.0>
0

>  <SCORE.INTRA.VDW>
0.561867

>  <SCORE.INTRA.VDW.0>
-0.0248484

>  <SCORE.INTRA.norm>
0.0516167

>  <SCORE.RESTR>
0

>  <SCORE.RESTR.CAVITY>
0

>  <SCORE.RESTR.norm>
0

>  <SCORE.SYSTEM>
-1.51208

>  <SCORE.SYSTEM.CONST>
0

>  <SCORE.SYSTEM.DIHEDRAL>
0.443016

>  <SCORE.SYSTEM.POLAR>
-0.503189

>  <SCORE.SYSTEM.VDW>
-0.0227504

>  <SCORE.SYSTEM.norm>
-0.0945053

>  <SCORE.heavy>
16

>  <SCORE.norm>
-0.746429

>  <enum_code>
T

>  <enum_smi>
CC1=C(C#N)C2=NC3=CCCC3=C(O)N2N1

>  <sha256>
39e1b0cb6462242f67993cb5678037f9b85a03408faf08abbd395fb60bce143b

>  <std_smi>
Cc1nn2c(O)c3c(nc2c1C#N)CCC3

>  <uuid>
19cc9512-616f-4fbd-b27c-987dbe3b8f5a

$$$$
19cc9512-616f-4fbd-b27c-987dbe3b8f5a
  rDOCK(R)          3D
libRbt.so/2013.1/901 2013/11/27
 18 20  0  0  0  0  0  0  0  0999 V2000
   -2.4619   20.8273    3.3808 C   0  0  0  0  0  0
   -3.2997   22.0538    3.5303 C   0  0  0  0  0  0
   -4.6056   22.0780    2.9906 N   0  0  0  0  0  0
   -5.1655   23.2784    3.3494 N   0  0  0  0  0  0
   -6.3900   23.8370    3.0744 C   0  0  0  0  0  0
   -7.2769   23.1542    2.2876 O   0  0  0  0  0  0
   -6.6401   25.0534    3.5741 C   0  0  0  0  0  0
   -5.6255   25.7399    4.3543 C   0  0  0  0  0  0
   -4.3851   25.1952    4.5834 N   0  0  0  0  0  0
   -4.2148   24.0098    4.0721 C   0  0  0  0  0  0
   -2.9709   23.2000    4.1703 C   0  0  0  0  0  0
   -1.7887   23.5517    4.8394 C   0  0  0  0  0  0
   -0.7890   23.7864    5.3812 N   0  0  0  0  0  0
   -6.0706   26.9269    4.7629 C   0  0  0  0  0  0
   -7.4705   27.1796    4.2945 C   0  0  0  0  0  0
   -7.8431   25.9331    3.4715 C   0  0  0  0  0  0
   -5.1369   21.2549    3.2866 H   0  0  0  0  0  0
   -7.9398   23.8268    2.0519 H   0  0  0  0  0  0
  1  2  1  0  0  0
  2  3  1  0  0  0
  3  4  1  0  0  0
  4  5  1  0  0  0
  5  6  1  0  0  0
  5  7  2  0  0  0
  7  8  1  0  0  0
  8  9  1  0  0  0
  9 10  2  0  0  0
 10 11  1  0  0  0
 11 12  1  0  0  0
 12 13  3  0  0  0
  8 14  2  0  0  0
 14 15  1  0  0  0
 15 16  1  0  0  0
 11  2  2  0  0  0
 10  4  1  0  0  0
 16  7  1  0  0  0
  3 17  1  0  0  0
  6 18  1  0  0  0
M  END
>  <CHROM.0>
-59.88758699,69.28078363

>  <CHROM.1>
-165.73485805,-4.86067788,24.07331623,3.84549705,0.51949398,0.36349039,-2.69144916

>  <Name>
19cc9512-616f-4fbd-b27c-987dbe3b8f5a

>  <RI>
3.87904e+07

>  <Rbt.Current_Directory>
/data/work/jku/5V6S/work/40/8dba899c20c42488f2b1a17844994e

>  <Rbt.Executable>
rbdock ($Id: //depot/dev/client3/rdock/2013.1/src/exe/rbdock.cxx#4 $)

>  <Rbt.Library>
libRbt.so (2013.1, Build901 2013/11/27)

>  <Rbt.Parameter_File>
/rDock_2013.1_src/data/scripts/dock.prm

>  <Rbt.Receptor>
docking.prm

>  <SCORE>
-13.771

>  <SCORE.INTER>
-13.0943

>  <SCORE.INTER.CONST>
1

>  <SCORE.INTER.POLAR>
-1.03063

>  <SCORE.INTER.REPUL>
0

>  <SCORE.INTER.ROT>
0

>  <SCORE.INTER.VDW>
-14.9901

>  <SCORE.INTER.norm>
-0.818391

>  <SCORE.INTRA>
0.836267

>  <SCORE.INTRA.DIHEDRAL>
-0.102658

>  <SCORE.INTRA.DIHEDRAL.0>
0.362873

>  <SCORE.INTRA.POLAR>
0.0926156

>  <SCORE.INTRA.POLAR.0>
-0.0926156

>  <SCORE.INTRA.REPUL>
0

>  <SCORE.INTRA.REPUL.0>
0

>  <SCORE.INTRA.VDW>
0.572703

>  <SCORE.INTRA.VDW.0>
-0.0248484

>  <SCORE.INTRA.norm>
0.0522667

>  <SCORE.RESTR>
0

>  <SCORE.RESTR.CAVITY>
0

>  <SCORE.RESTR.norm>
0

>  <SCORE.SYSTEM>
-1.51302

>  <SCORE.SYSTEM.CONST>
0

>  <SCORE.SYSTEM.DIHEDRAL>
0.424382

>  <SCORE.SYSTEM.POLAR>
-0.503126

>  <SCORE.SYSTEM.VDW>
-0.0145836

>  <SCORE.SYSTEM.norm>
-0.0945638

>  <SCORE.heavy>
16

>  <SCORE.norm>
-0.860689

>  <enum_code>
T

>  <enum_smi>
CC1=C(C#N)C2=NC3=CCCC3=C(O)N2N1

>  <sha256>
39e1b0cb6462242f67993cb5678037f9b85a03408faf08abbd395fb60bce143b

>  <std_smi>
Cc1nn2c(O)c3c(nc2c1C#N)CCC3

>  <uuid>
19cc9512-616f-4fbd-b27c-987dbe3b8f5a

$$$$
19cc9512-616f-4fbd-b27c-987dbe3b8f5a
  rDOCK(R)          3D
libRbt.so/2013.1/901 2013/11/27
 18 20  0  0  0  0  0  0  0  0999 V2000
   -6.4441   22.1701    2.3889 C   0  0  0  0  0  0
   -5.3275   22.8397    3.1191 C   0  0  0  0  0  0
   -4.1297   22.1314    3.3655 N   0  0  0  0  0  0
   -3.2613   23.0085    3.9654 N   0  0  0  0  0  0
   -1.9828   22.8505    4.4420 C   0  0  0  0  0  0
   -1.3867   21.6212    4.3676 O   0  0  0  0  0  0
   -1.3918   23.9188    4.9909 C   0  0  0  0  0  0
   -2.1108   25.1772    5.0851 C   0  0  0  0  0  0
   -3.4072   25.3140    4.6508 N   0  0  0  0  0  0
   -3.9153   24.2367    4.1247 C   0  0  0  0  0  0
   -5.2939   24.1116    3.5802 C   0  0  0  0  0  0
   -6.2675   25.1201    3.5154 C   0  0  0  0  0  0
   -7.1085   25.9158    3.4299 N   0  0  0  0  0  0
   -1.3502   26.1113    5.6533 C   0  0  0  0  0  0
    0.0012   25.5753    6.0131 C   0  0  0  0  0  0
   -0.0366   24.0944    5.5944 C   0  0  0  0  0  0
   -3.7765   21.7036    2.5056 H   0  0  0  0  0  0
   -2.0724   21.0574    3.9684 H   0  0  0  0  0  0
  1  2  1  0  0  0
  2  3  1  0  0  0
  3  4  1  0  0  0
  4  5  1  0  0  0
  5  6  1  0  0  0
  5  7  2  0  0  0
  7  8  1  0  0  0
  8  9  1  0  0  0
  9 10  2  0  0  0
 10 11  1  0  0  0
 11 12  1  0  0  0
 12 13  3  0  0  0
  8 14  2  0  0  0
 14 15  1  0  0  0
 15 16  1  0  0  0
 11  2  2  0  0  0
 10  4  1  0  0  0
 16  7  1  0  0  0
  3 17  1  0  0  0
  6 18  1  0  0  0
M  END
>  <CHROM.0>
-59.88758699,68.96067878

>  <CHROM.1>
-1.24969451,-3.31248451,23.94533073,4.25349229,-2.90530678,-0.35645548,0.30422933

>  <Name>
19cc9512-616f-4fbd-b27c-987dbe3b8f5a

>  <RI>
3.87904e+07

>  <Rbt.Current_Directory>
/data/work/jku/5V6S/work/40/8dba899c20c42488f2b1a17844994e

>  <Rbt.Executable>
rbdock ($Id: //depot/dev/client3/rdock/2013.1/src/exe/rbdock.cxx#4 $)

>  <Rbt.Library>
libRbt.so (2013.1, Build901 2013/11/27)

>  <Rbt.Parameter_File>
/rDock_2013.1_src/data/scripts/dock.prm

>  <Rbt.Receptor>
docking.prm

>  <SCORE>
-12.1319

>  <SCORE.INTER>
-10.2911

>  <SCORE.INTER.CONST>
1

>  <SCORE.INTER.POLAR>
-0.286467

>  <SCORE.INTER.REPUL>
0

>  <SCORE.INTER.ROT>
0

>  <SCORE.INTER.VDW>
-14.7171

>  <SCORE.INTER.norm>
-0.643196

>  <SCORE.INTRA>
-0.327113

>  <SCORE.INTRA.DIHEDRAL>
-0.355594

>  <SCORE.INTRA.DIHEDRAL.0>
0.362873

>  <SCORE.INTRA.POLAR>
-0.0506198

>  <SCORE.INTRA.POLAR.0>
-0.0926156

>  <SCORE.INTRA.REPUL>
0

>  <SCORE.INTRA.REPUL.0>
0

>  <SCORE.INTRA.VDW>
0.0227915

>  <SCORE.INTRA.VDW.0>
-0.0248484

>  <SCORE.INTRA.norm>
-0.0204445

>  <SCORE.RESTR>
0

>  <SCORE.RESTR.CAVITY>
0

>  <SCORE.RESTR.norm>
0

>  <SCORE.SYSTEM>
-1.51366

>  <SCORE.SYSTEM.CONST>
0

>  <SCORE.SYSTEM.DIHEDRAL>
0.39665

>  <SCORE.SYSTEM.POLAR>
-0.502961

>  <SCORE.SYSTEM.VDW>
-0.00191303

>  <SCORE.SYSTEM.norm>
-0.0946035

>  <SCORE.heavy>
16

>  <SCORE.norm>
-0.758244

>  <enum_code>
T

>  <enum_smi>
CC1=C(C#N)C2=NC3=CCCC3=C(O)N2N1

>  <sha256>
39e1b0cb6462242f67993cb5678037f9b85a03408faf08abbd395fb60bce143b

>  <std_smi>
Cc1nn2c(O)c3c(nc2c1C#N)CCC3

>  <uuid>
19cc9512-616f-4fbd-b27c-987dbe3b8f5a

$$$$
cf300ab0-5373-44dc-aa76-273861f03e4f
  rDOCK(R)          3D
libRbt.so/2013.1/901 2013/11/27
 17 19  0  0  0  0  0  0  0  0999 V2000
   -5.0434   21.6669    3.0481 C   0  0  0  0  0  0
   -4.3604   22.8693    3.6103 C   0  0  0  0  0  0
   -5.0228   24.0933    3.6358 N   0  0  0  0  0  0
   -4.0826   25.0271    4.0590 N   0  0  0  0  0  0
   -4.2828   26.3944    4.0192 C   0  0  0  0  0  0
   -5.3249   26.9377    3.6586 O   0  0  0  0  0  0
   -3.0063   27.1549    4.3421 C   0  0  0  0  0  0
   -2.0765   26.3099    5.1725 C   0  0  0  0  0  0
   -1.8964   24.9703    4.9642 N   0  0  0  0  0  0
   -2.9160   24.3759    4.4450 C   0  0  0  0  0  0
   -3.1170   22.9455    4.1259 C   0  0  0  0  0  0
   -2.1555   21.9323    4.2774 C   0  0  0  0  0  0
   -1.3916   21.0641    4.3764 N   0  0  0  0  0  0
   -1.5114   27.0205    6.1514 C   0  0  0  0  0  0
   -1.9914   28.4343    6.1478 C   0  0  0  0  0  0
   -3.2166   28.3803    5.2291 C   0  0  0  0  0  0
   -5.5242   24.3497    2.7828 H   0  0  0  0  0  0
  1  2  1  0  0  0
  2  3  1  0  0  0
  3  4  1  0  0  0
  4  5  1  0  0  0
  5  6  2  0  0  0
  5  7  1  0  0  0
  7  8  1  0  0  0
  8  9  1  0  0  0
  9 10  2  0  0  0
 10 11  1  0  0  0
 11 12  1  0  0  0
 12 13  3  0  0  0
  8 14  2  0  0  0
 14 15  1  0  0  0
 15 16  1  0  0  0
 11  2  2  0  0  0
 10  4  1  0  0  0
 16  7  1  0  0  0
  3 17  1  0  0  0
M  END
>  <CHROM.0>
-59.88758699,69.05139134

>  <CHROM.1>
-3.26362059,25.00087357,4.43483919,1.68956906,0.46125706,-2.93712717

>  <Name>
cf300ab0-5373-44dc-aa76-273861f03e4f

>  <RI>
4.0822e+07

>  <Rbt.Current_Directory>
/data/work/jku/5V6S/work/40/8dba899c20c42488f2b1a17844994e

>  <Rbt.Executable>
rbdock ($Id: //depot/dev/client3/rdock/2013.1/src/exe/rbdock.cxx#4 $)

>  <Rbt.Library>
libRbt.so (2013.1, Build901 2013/11/27)

>  <Rbt.Parameter_File>
/rDock_2013.1_src/data/scripts/dock.prm

>  <Rbt.Receptor>
docking.prm

>  <SCORE>
-10.1696

>  <SCORE.INTER>
-8.65602

>  <SCORE.INTER.CONST>
1

>  <SCORE.INTER.POLAR>
-0.321283

>  <SCORE.INTER.REPUL>
0

>  <SCORE.INTER.ROT>
0

>  <SCORE.INTER.VDW>
-12.9637

>  <SCORE.INTER.norm>
-0.541001

>  <SCORE.INTRA>
0

>  <SCORE.INTRA.DIHEDRAL>
0

>  <SCORE.INTRA.DIHEDRAL.0>
0

>  <SCORE.INTRA.POLAR>
0

>  <SCORE.INTRA.POLAR.0>
0

>  <SCORE.INTRA.REPUL>
0

>  <SCORE.INTRA.REPUL.0>
0

>  <SCORE.INTRA.VDW>
0

>  <SCORE.INTRA.VDW.0>
0

>  <SCORE.INTRA.norm>
0

>  <SCORE.RESTR>
0

>  <SCORE.RESTR.CAVITY>
0

>  <SCORE.RESTR.norm>
0

>  <SCORE.SYSTEM>
-1.51357

>  <SCORE.SYSTEM.CONST>
0

>  <SCORE.SYSTEM.DIHEDRAL>
0.404417

>  <SCORE.SYSTEM.POLAR>
-0.503016

>  <SCORE.SYSTEM.VDW>
-0.00552733

>  <SCORE.SYSTEM.norm>
-0.0945984

>  <SCORE.heavy>
16

>  <SCORE.norm>
-0.635599

>  <enum_code>
T

>  <enum_smi>
CC1=C(C#N)C2=NC3=CCCC3C(=O)N2N1

>  <sha256>
39e1b0cb6462242f67993cb5678037f9b85a03408faf08abbd395fb60bce143b

>  <std_smi>
Cc1nn2c(O)c3c(nc2c1C#N)CCC3

>  <uuid>
cf300ab0-5373-44dc-aa76-273861f03e4f

$$$$
cf300ab0-5373-44dc-aa76-273861f03e4f
  rDOCK(R)          3D
libRbt.so/2013.1/901 2013/11/27
 17 19  0  0  0  0  0  0  0  0999 V2000
   -7.5345   24.1830    4.0228 C   0  0  0  0  0  0
   -6.0523   24.3370    4.1101 C   0  0  0  0  0  0
   -5.2220   23.3158    3.6567 N   0  0  0  0  0  0
   -3.9305   23.6859    4.0172 N   0  0  0  0  0  0
   -2.8363   22.8450    3.9329 C   0  0  0  0  0  0
   -2.8673   21.7011    3.4838 O   0  0  0  0  0  0
   -1.6111   23.4555    4.5950 C   0  0  0  0  0  0
   -1.7109   24.9580    4.6213 C   0  0  0  0  0  0
   -2.8778   25.6259    4.8717 N   0  0  0  0  0  0
   -3.9394   24.9777    4.5319 C   0  0  0  0  0  0
   -5.3597   25.3859    4.5975 C   0  0  0  0  0  0
   -5.8381   26.5934    5.1335 C   0  0  0  0  0  0
   -6.2805   27.5721    5.5735 N   0  0  0  0  0  0
   -0.5445   25.5319    4.3169 C   0  0  0  0  0  0
    0.5037   24.5125    4.0140 C   0  0  0  0  0  0
   -0.3087   23.2263    3.8310 C   0  0  0  0  0  0
   -5.4863   22.3676    3.9318 H   0  0  0  0  0  0
  1  2  1  0  0  0
  2  3  1  0  0  0
  3  4  1  0  0  0
  4  5  1  0  0  0
  5  6  2  0  0  0
  5  7  1  0  0  0
  7  8  1  0  0  0
  8  9  1  0  0  0
  9 10  2  0  0  0
 10 11  1  0  0  0
 11 12  1  0  0  0
 12 13  3  0  0  0
  8 14  2  0  0  0
 14 15  1  0  0  0
 15 16  1  0  0  0
 11  2  2  0  0  0
 10  4  1  0  0  0
 16  7  1  0  0  0
  3 17  1  0  0  0
M  END
>  <CHROM.0>
-59.88758699,68.47272191

>  <CHROM.1>
-3.52715675,24.43673924,4.31066570,2.85237860,-0.00158355,0.33427392

>  <Name>
cf300ab0-5373-44dc-aa76-273861f03e4f

>  <RI>
4.0822e+07

>  <Rbt.Current_Directory>
/data/work/jku/5V6S/work/40/8dba899c20c42488f2b1a17844994e

>  <Rbt.Executable>
rbdock ($Id: //depot/dev/client3/rdock/2013.1/src/exe/rbdock.cxx#4 $)

>  <Rbt.Library>
libRbt.so (2013.1, Build901 2013/11/27)

>  <Rbt.Parameter_File>
/rDock_2013.1_src/data/scripts/dock.prm

>  <Rbt.Receptor>
docking.prm

>  <SCORE>
-12.4258

>  <SCORE.INTER>
-10.913

>  <SCORE.INTER.CONST>
1

>  <SCORE.INTER.POLAR>
0

>  <SCORE.INTER.REPUL>
0

>  <SCORE.INTER.ROT>
0

>  <SCORE.INTER.VDW>
-16.313

>  <SCORE.INTER.norm>
-0.682062

>  <SCORE.INTRA>
0

>  <SCORE.INTRA.DIHEDRAL>
0

>  <SCORE.INTRA.DIHEDRAL.0>
0

>  <SCORE.INTRA.POLAR>
0

>  <SCORE.INTRA.POLAR.0>
0

>  <SCORE.INTRA.REPUL>
0

>  <SCORE.INTRA.REPUL.0>
0

>  <SCORE.INTRA.VDW>
0

>  <SCORE.INTRA.VDW.0>
0

>  <SCORE.INTRA.norm>
0

>  <SCORE.RESTR>
0

>  <SCORE.RESTR.CAVITY>
0

>  <SCORE.RESTR.norm>
0

>  <SCORE.SYSTEM>
-1.51276

>  <SCORE.SYSTEM.CONST>
0

>  <SCORE.SYSTEM.DIHEDRAL>
0.356114

>  <SCORE.SYSTEM.POLAR>
-0.502551

>  <SCORE.SYSTEM.VDW>
0.0178534

>  <SCORE.SYSTEM.norm>
-0.0945476

>  <SCORE.heavy>
16

>  <SCORE.norm>
-0.77661

>  <enum_code>
T

>  <enum_smi>
CC1=C(C#N)C2=NC3=CCCC3C(=O)N2N1

>  <sha256>
39e1b0cb6462242f67993cb5678037f9b85a03408faf08abbd395fb60bce143b

>  <std_smi>
Cc1nn2c(O)c3c(nc2c1C#N)CCC3

>  <uuid>
cf300ab0-5373-44dc-aa76-273861f03e4f

$$$$
cf300ab0-5373-44dc-aa76-273861f03e4f
  rDOCK(R)          3D
libRbt.so/2013.1/901 2013/11/27
 17 19  0  0  0  0  0  0  0  0999 V2000
   -7.7116   26.7986    4.0894 C   0  0  0  0  0  0
   -6.3042   26.5168    4.4993 C   0  0  0  0  0  0
   -5.6983   25.3224    4.1197 N   0  0  0  0  0  0
   -4.4739   25.2894    4.7791 N   0  0  0  0  0  0
   -3.6577   24.1749    4.8328 C   0  0  0  0  0  0
   -3.8912   23.1099    4.2651 O   0  0  0  0  0  0
   -2.5000   24.3771    5.7977 C   0  0  0  0  0  0
   -2.1948   25.8423    5.9665 C   0  0  0  0  0  0
   -3.1639   26.8045    6.0401 N   0  0  0  0  0  0
   -4.2529   26.5044    5.4184 C   0  0  0  0  0  0
   -5.4862   27.2994    5.2314 C   0  0  0  0  0  0
   -5.7320   28.5674    5.7847 C   0  0  0  0  0  0
   -5.9834   29.6105    6.2272 N   0  0  0  0  0  0
   -0.8795   26.0708    5.9757 C   0  0  0  0  0  0
   -0.1040   24.8087    5.7879 C   0  0  0  0  0  0
   -1.1679   23.8194    5.3008 C   0  0  0  0  0  0
   -6.2641   24.4782    4.2287 H   0  0  0  0  0  0
  1  2  1  0  0  0
  2  3  1  0  0  0
  3  4  1  0  0  0
  4  5  1  0  0  0
  5  6  2  0  0  0
  5  7  1  0  0  0
  7  8  1  0  0  0
  8  9  1  0  0  0
  9 10  2  0  0  0
 10 11  1  0  0  0
 11 12  1  0  0  0
 12 13  3  0  0  0
  8 14  2  0  0  0
 14 15  1  0  0  0
 15 16  1  0  0  0
 11  2  2  0  0  0
 10  4  1  0  0  0
 16  7  1  0  0  0
  3 17  1  0  0  0
M  END
>  <CHROM.0>
-59.88758699,68.31226493

>  <CHROM.1>
-3.96212763,25.87870803,5.23004030,2.66334870,-0.31234366,0.38452393

>  <Name>
cf300ab0-5373-44dc-aa76-273861f03e4f

>  <RI>
4.0822e+07

>  <Rbt.Current_Directory>
/data/work/jku/5V6S/work/40/8dba899c20c42488f2b1a17844994e

>  <Rbt.Executable>
rbdock ($Id: //depot/dev/client3/rdock/2013.1/src/exe/rbdock.cxx#4 $)

>  <Rbt.Library>
libRbt.so (2013.1, Build901 2013/11/27)

>  <Rbt.Parameter_File>
/rDock_2013.1_src/data/scripts/dock.prm

>  <Rbt.Receptor>
docking.prm

>  <SCORE>
-12.85

>  <SCORE.INTER>
-11.338

>  <SCORE.INTER.CONST>
1

>  <SCORE.INTER.POLAR>
0

>  <SCORE.INTER.REPUL>
0.00904119

>  <SCORE.INTER.ROT>
0

>  <SCORE.INTER.VDW>
-16.7832

>  <SCORE.INTER.norm>
-0.708624

>  <SCORE.INTRA>
0

>  <SCORE.INTRA.DIHEDRAL>
0

>  <SCORE.INTRA.DIHEDRAL.0>
0

>  <SCORE.INTRA.POLAR>
0

>  <SCORE.INTRA.POLAR.0>
0

>  <SCORE.INTRA.REPUL>
0

>  <SCORE.INTRA.REPUL.0>
0

>  <SCORE.INTRA.VDW>
0

>  <SCORE.INTRA.VDW.0>
0

>  <SCORE.INTRA.norm>
0

>  <SCORE.RESTR>
0

>  <SCORE.RESTR.CAVITY>
0

>  <SCORE.RESTR.norm>
0

>  <SCORE.SYSTEM>
-1.51197

>  <SCORE.SYSTEM.CONST>
0

>  <SCORE.SYSTEM.DIHEDRAL>
0.343247

>  <SCORE.SYSTEM.POLAR>
-0.502373

>  <SCORE.SYSTEM.VDW>
0.0244739

>  <SCORE.SYSTEM.norm>
-0.0944982

>  <SCORE.heavy>
16

>  <SCORE.norm>
-0.803122

>  <enum_code>
T

>  <enum_smi>
CC1=C(C#N)C2=NC3=CCCC3C(=O)N2N1

>  <sha256>
39e1b0cb6462242f67993cb5678037f9b85a03408faf08abbd395fb60bce143b

>  <std_smi>
Cc1nn2c(O)c3c(nc2c1C#N)CCC3

>  <uuid>
cf300ab0-5373-44dc-aa76-273861f03e4f

$$$$
cf300ab0-5373-44dc-aa76-273861f03e4f
  rDOCK(R)          3D
libRbt.so/2013.1/901 2013/11/27
 17 19  0  0  0  0  0  0  0  0999 V2000
   -0.0113   32.5172   -0.1282 C   0  0  0  0  0  0
   -0.5313   31.6236    0.9485 C   0  0  0  0  0  0
   -0.0623   30.3169    1.0505 N   0  0  0  0  0  0
   -0.8416   29.7073    2.0283 N   0  0  0  0  0  0
   -0.8333   28.3486    2.2838 C   0  0  0  0  0  0
   -0.1044   27.5360    1.7186 O   0  0  0  0  0  0
   -1.9380   27.9562    3.2523 C   0  0  0  0  0  0
   -2.3359   29.1272    4.1117 C   0  0  0  0  0  0
   -2.4323   30.4057    3.6357 N   0  0  0  0  0  0
   -1.6600   30.6547    2.6337 C   0  0  0  0  0  0
   -1.4480   31.9171    1.8924 C   0  0  0  0  0  0
   -2.1374   33.1208    2.1160 C   0  0  0  0  0  0
   -2.6868   34.1334    2.2578 N   0  0  0  0  0  0
   -2.5204   28.7619    5.3825 C   0  0  0  0  0  0
   -2.2498   27.3066    5.5777 C   0  0  0  0  0  0
   -1.5194   26.9156    4.2887 C   0  0  0  0  0  0
    0.0067   29.7956    0.1740 H   0  0  0  0  0  0
  1  2  1  0  0  0
  2  3  1  0  0  0
  3  4  1  0  0  0
  4  5  1  0  0  0
  5  6  2  0  0  0
  5  7  1  0  0  0
  7  8  1  0  0  0
  8  9  1  0  0  0
  9 10  2  0  0  0
 10 11  1  0  0  0
 11 12  1  0  0  0
 12 13  3  0  0  0
  8 14  2  0  0  0
 14 15  1  0  0  0
 15 16  1  0  0  0
 11  2  2  0  0  0
 10  4  1  0  0  0
 16  7  1  0  0  0
  3 17  1  0  0  0
M  END
>  <CHROM.0>
-59.88758699,68.47790253

>  <CHROM.1>
-1.42166111,29.98095350,2.66171795,-1.40783031,-0.90519514,2.71806339

>  <Name>
cf300ab0-5373-44dc-aa76-273861f03e4f

>  <RI>
4.0822e+07

>  <Rbt.Current_Directory>
/data/work/jku/5V6S/work/40/8dba899c20c42488f2b1a17844994e

>  <Rbt.Executable>
rbdock ($Id: //depot/dev/client3/rdock/2013.1/src/exe/rbdock.cxx#4 $)

>  <Rbt.Library>
libRbt.so (2013.1, Build901 2013/11/27)

>  <Rbt.Parameter_File>
/rDock_2013.1_src/data/scripts/dock.prm

>  <Rbt.Receptor>
docking.prm

>  <SCORE>
-16.3683

>  <SCORE.INTER>
-14.8556

>  <SCORE.INTER.CONST>
1

>  <SCORE.INTER.POLAR>
-1.194

>  <SCORE.INTER.REPUL>
0.0051867

>  <SCORE.INTER.ROT>
0

>  <SCORE.INTER.VDW>
-16.2219

>  <SCORE.INTER.norm>
-0.928473

>  <SCORE.INTRA>
0

>  <SCORE.INTRA.DIHEDRAL>
0

>  <SCORE.INTRA.DIHEDRAL.0>
0

>  <SCORE.INTRA.POLAR>
0

>  <SCORE.INTRA.POLAR.0>
0

>  <SCORE.INTRA.REPUL>
0

>  <SCORE.INTRA.REPUL.0>
0

>  <SCORE.INTRA.VDW>
0

>  <SCORE.INTRA.VDW.0>
0

>  <SCORE.INTRA.norm>
0

>  <SCORE.RESTR>
0

>  <SCORE.RESTR.CAVITY>
0

>  <SCORE.RESTR.norm>
0

>  <SCORE.SYSTEM>
-1.51278

>  <SCORE.SYSTEM.CONST>
0

>  <SCORE.SYSTEM.DIHEDRAL>
0.356533

>  <SCORE.SYSTEM.POLAR>
-0.502556

>  <SCORE.SYSTEM.VDW>
0.0176406

>  <SCORE.SYSTEM.norm>
-0.094549

>  <SCORE.heavy>
16

>  <SCORE.norm>
-1.02302

>  <enum_code>
T

>  <enum_smi>
CC1=C(C#N)C2=NC3=CCCC3C(=O)N2N1

>  <sha256>
39e1b0cb6462242f67993cb5678037f9b85a03408faf08abbd395fb60bce143b

>  <std_smi>
Cc1nn2c(O)c3c(nc2c1C#N)CCC3

>  <uuid>
cf300ab0-5373-44dc-aa76-273861f03e4f

$$$$
cf300ab0-5373-44dc-aa76-273861f03e4f
  rDOCK(R)          3D
libRbt.so/2013.1/901 2013/11/27
 17 19  0  0  0  0  0  0  0  0999 V2000
   -0.1788   25.1527    5.8275 C   0  0  0  0  0  0
   -1.6151   25.2646    5.4366 C   0  0  0  0  0  0
   -2.2652   26.4917    5.5322 N   0  0  0  0  0  0
   -3.6046   26.2363    5.2566 N   0  0  0  0  0  0
   -4.6197   27.1545    5.4508 C   0  0  0  0  0  0
   -4.4524   28.3101    5.8352 O   0  0  0  0  0  0
   -5.9891   26.5196    5.2663 C   0  0  0  0  0  0
   -5.9009   25.3083    4.3759 C   0  0  0  0  0  0
   -4.8681   24.4134    4.4306 N   0  0  0  0  0  0
   -3.7541   24.9184    4.8387 C   0  0  0  0  0  0
   -2.4235   24.2876    4.9788 C   0  0  0  0  0  0
   -2.1333   22.9331    4.7433 C   0  0  0  0  0  0
   -1.8479   21.8216    4.5699 N   0  0  0  0  0  0
   -6.9152   25.2626    3.5090 C   0  0  0  0  0  0
   -7.8191   26.4410    3.6626 C   0  0  0  0  0  0
   -6.9912   27.4008    4.5236 C   0  0  0  0  0  0
   -2.1000   27.0210    6.3909 H   0  0  0  0  0  0
  1  2  1  0  0  0
  2  3  1  0  0  0
  3  4  1  0  0  0
  4  5  1  0  0  0
  5  6  2  0  0  0
  5  7  1  0  0  0
  7  8  1  0  0  0
  8  9  1  0  0  0
  9 10  2  0  0  0
 10 11  1  0  0  0
 11 12  1  0  0  0
 12 13  3  0  0  0
  8 14  2  0  0  0
 14 15  1  0  0  0
 15 16  1  0  0  0
 11  2  2  0  0  0
 10  4  1  0  0  0
 16  7  1  0  0  0
  3 17  1  0  0  0
M  END
>  <CHROM.0>
-59.88758699,68.84608894

>  <CHROM.1>
-4.07815040,25.55200903,4.91017602,-0.39459038,-0.29553409,0.32132193

>  <Name>
cf300ab0-5373-44dc-aa76-273861f03e4f

>  <RI>
4.0822e+07

>  <Rbt.Current_Directory>
/data/work/jku/5V6S/work/40/8dba899c20c42488f2b1a17844994e

>  <Rbt.Executable>
rbdock ($Id: //depot/dev/client3/rdock/2013.1/src/exe/rbdock.cxx#4 $)

>  <Rbt.Library>
libRbt.so (2013.1, Build901 2013/11/27)

>  <Rbt.Parameter_File>
/rDock_2013.1_src/data/scripts/dock.prm

>  <Rbt.Receptor>
docking.prm

>  <SCORE>
-12.405

>  <SCORE.INTER>
-10.8913

>  <SCORE.INTER.CONST>
1

>  <SCORE.INTER.POLAR>
-0.105009

>  <SCORE.INTER.REPUL>
0

>  <SCORE.INTER.ROT>
0

>  <SCORE.INTER.VDW>
-15.9343

>  <SCORE.INTER.norm>
-0.680707

>  <SCORE.INTRA>
0

>  <SCORE.INTRA.DIHEDRAL>
0

>  <SCORE.INTRA.DIHEDRAL.0>
0

>  <SCORE.INTRA.POLAR>
0

>  <SCORE.INTRA.POLAR.0>
0

>  <SCORE.INTRA.REPUL>
0

>  <SCORE.INTRA.REPUL.0>
0

>  <SCORE.INTRA.VDW>
0

>  <SCORE.INTRA.VDW.0>
0

>  <SCORE.INTRA.norm>
0

>  <SCORE.RESTR>
0

>  <SCORE.RESTR.CAVITY>
0

>  <SCORE.RESTR.norm>
0

>  <SCORE.SYSTEM>
-1.51365

>  <SCORE.SYSTEM.CONST>
0

>  <SCORE.SYSTEM.DIHEDRAL>
0.386941

>  <SCORE.SYSTEM.POLAR>
-0.502882

>  <SCORE.SYSTEM.VDW>
0.00267953

>  <SCORE.SYSTEM.norm>
-0.0946031

>  <SCORE.heavy>
16

>  <SCORE.norm>
-0.775311

>  <enum_code>
T

>  <enum_smi>
CC1=C(C#N)C2=NC3=CCCC3C(=O)N2N1

>  <sha256>
39e1b0cb6462242f67993cb5678037f9b85a03408faf08abbd395fb60bce143b

>  <std_smi>
Cc1nn2c(O)c3c(nc2c1C#N)CCC3

>  <uuid>
cf300ab0-5373-44dc-aa76-273861f03e4f

$$$$
163c1d93-f723-4918-9bfb-3fc37b23e625
  rDOCK(R)          3D
libRbt.so/2013.1/901 2013/11/27
 17 19  0  0  0  0  0  0  0  0999 V2000
    0.5923   32.9788   -0.2501 C   0  0  0  0  0  0
    0.0116   31.9762    0.6927 C   0  0  0  0  0  0
    0.0163   30.6901    0.4542 N   0  0  0  0  0  0
   -0.5833   30.1349    1.5577 N   0  0  0  0  0  0
   -0.7722   28.7909    1.7844 C   0  0  0  0  0  0
   -0.3786   27.9039    0.8212 O   0  0  0  0  0  0
   -1.3325   28.4269    2.9452 C   0  0  0  0  0  0
   -1.7132   29.4383    3.9180 C   0  0  0  0  0  0
   -1.5112   30.7806    3.6940 N   0  0  0  0  0  0
   -0.9743   31.0380    2.5374 C   0  0  0  0  0  0
   -0.6211   32.3949    2.0146 C   0  0  0  0  0  0
   -1.8021   33.2163    1.7892 C   0  0  0  0  0  0
   -2.7086   33.9076    1.5705 N   0  0  0  0  0  0
   -2.2533   28.8732    4.9960 C   0  0  0  0  0  0
   -2.3007   27.3811    4.8679 C   0  0  0  0  0  0
   -1.6751   27.0803    3.4936 C   0  0  0  0  0  0
   -0.0982   28.4947    0.0943 H   0  0  0  0  0  0
  1  2  1  0  0  0
  2  3  2  0  0  0
  3  4  1  0  0  0
  4  5  1  0  0  0
  5  6  1  0  0  0
  5  7  2  0  0  0
  7  8  1  0  0  0
  8  9  1  0  0  0
  9 10  2  0  0  0
 10 11  1  0  0  0
 11 12  1  0  0  0
 12 13  3  0  0  0
  8 14  2  0  0  0
 14 15  1  0  0  0
 15 16  1  0  0  0
 11  2  1  0  0  0
 10  4  1  0  0  0
 16  7  1  0  0  0
  6 17  1  0  0  0
M  END
>  <CHROM.0>
-59.88758699,68.98568288

>  <CHROM.1>
-5.15659000,-1.10422589,30.28213836,2.25975910,-1.24095026,-0.97850676,2.87390603

>  <Name>
163c1d93-f723-4918-9bfb-3fc37b23e625

>  <RI>
3.97612e+07

>  <Rbt.Current_Directory>
/data/work/jku/5V6S/work/40/8dba899c20c42488f2b1a17844994e

>  <Rbt.Executable>
rbdock ($Id: //depot/dev/client3/rdock/2013.1/src/exe/rbdock.cxx#4 $)

>  <Rbt.Library>
libRbt.so (2013.1, Build901 2013/11/27)

>  <Rbt.Parameter_File>
/rDock_2013.1_src/data/scripts/dock.prm

>  <Rbt.Receptor>
docking.prm

>  <SCORE>
-14.9475

>  <SCORE.INTER>
-13.5006

>  <SCORE.INTER.CONST>
1

>  <SCORE.INTER.POLAR>
-0.432543

>  <SCORE.INTER.REPUL>
0

>  <SCORE.INTER.ROT>
0

>  <SCORE.INTER.VDW>
-17.4299

>  <SCORE.INTER.norm>
-0.843785

>  <SCORE.INTRA>
0.0667072

>  <SCORE.INTRA.DIHEDRAL>
0.037615

>  <SCORE.INTRA.DIHEDRAL.0>
0.000126437

>  <SCORE.INTRA.POLAR>
0.0155897

>  <SCORE.INTRA.POLAR.0>
-0.372

>  <SCORE.INTRA.REPUL>
0

>  <SCORE.INTRA.REPUL.0>
0

>  <SCORE.INTRA.VDW>
-0.00510529

>  <SCORE.INTRA.VDW.0>
0.092436

>  <SCORE.INTRA.norm>
0.0041692

>  <SCORE.RESTR>
0

>  <SCORE.RESTR.CAVITY>
0

>  <SCORE.RESTR.norm>
0

>  <SCORE.SYSTEM>
-1.51364

>  <SCORE.SYSTEM.CONST>
0

>  <SCORE.SYSTEM.DIHEDRAL>
0.398784

>  <SCORE.SYSTEM.POLAR>
-0.502977

>  <SCORE.SYSTEM.VDW>
-0.00291116

>  <SCORE.SYSTEM.norm>
-0.0946026

>  <SCORE.heavy>
16

>  <SCORE.norm>
-0.934218

>  <enum_code>
T

>  <enum_smi>
CC1=NN2C(=NC3=CCCC3=C2O)C1C#N

>  <sha256>
39e1b0cb6462242f67993cb5678037f9b85a03408faf08abbd395fb60bce143b

>  <std_smi>
Cc1nn2c(O)c3c(nc2c1C#N)CCC3

>  <uuid>
163c1d93-f723-4918-9bfb-3fc37b23e625

$$$$
163c1d93-f723-4918-9bfb-3fc37b23e625
  rDOCK(R)          3D
libRbt.so/2013.1/901 2013/11/27
 17 19  0  0  0  0  0  0  0  0999 V2000
    0.6374   33.0041   -0.1534 C   0  0  0  0  0  0
    0.0309   31.9949    0.7657 C   0  0  0  0  0  0
    0.0315   30.7116    0.5123 N   0  0  0  0  0  0
   -0.5941   30.1479    1.5968 N   0  0  0  0  0  0
   -0.7969   28.8028    1.8039 C   0  0  0  0  0  0
   -0.3899   27.9241    0.8386 O   0  0  0  0  0  0
   -1.3831   28.4294    2.9488 C   0  0  0  0  0  0
   -1.7765   29.4321    3.9255 C   0  0  0  0  0  0
   -1.5607   30.7754    3.7213 N   0  0  0  0  0  0
   -0.9987   31.0424    2.5789 C   0  0  0  0  0  0
   -0.6256   32.4027    2.0793 C   0  0  0  0  0  0
   -1.7961   33.2350    1.8398 C   0  0  0  0  0  0
   -2.6933   33.9352    1.6109 N   0  0  0  0  0  0
   -2.3421   28.8584    4.9857 C   0  0  0  0  0  0
   -2.3972   27.3683    4.8392 C   0  0  0  0  0  0
   -1.7459   27.0789    3.4744 C   0  0  0  0  0  0
   -0.1090   28.5212    0.1169 H   0  0  0  0  0  0
  1  2  1  0  0  0
  2  3  2  0  0  0
  3  4  1  0  0  0
  4  5  1  0  0  0
  5  6  1  0  0  0
  5  7  2  0  0  0
  7  8  1  0  0  0
  8  9  1  0  0  0
  9 10  2  0  0  0
 10 11  1  0  0  0
 11 12  1  0  0  0
 12 13  3  0  0  0
  8 14  2  0  0  0
 14 15  1  0  0  0
 15 16  1  0  0  0
 11  2  1  0  0  0
 10  4  1  0  0  0
 16  7  1  0  0  0
  6 17  1  0  0  0
M  END
>  <CHROM.0>
-59.88758699,69.11815007

>  <CHROM.1>
-6.34180969,-1.12823950,30.29072106,2.28987348,-1.21991883,-0.96081257,2.90292768

>  <Name>
163c1d93-f723-4918-9bfb-3fc37b23e625

>  <RI>
3.97612e+07

>  <Rbt.Current_Directory>
/data/work/jku/5V6S/work/40/8dba899c20c42488f2b1a17844994e

>  <Rbt.Executable>
rbdock ($Id: //depot/dev/client3/rdock/2013.1/src/exe/rbdock.cxx#4 $)

>  <Rbt.Library>
libRbt.so (2013.1, Build901 2013/11/27)

>  <Rbt.Parameter_File>
/rDock_2013.1_src/data/scripts/dock.prm

>  <Rbt.Receptor>
docking.prm

>  <SCORE>
-14.9689

>  <SCORE.INTER>
-13.5521

>  <SCORE.INTER.CONST>
1

>  <SCORE.INTER.POLAR>
-0.454359

>  <SCORE.INTER.REPUL>
0

>  <SCORE.INTER.ROT>
0

>  <SCORE.INTER.VDW>
-17.4073

>  <SCORE.INTER.norm>
-0.847005

>  <SCORE.INTRA>
0.096635

>  <SCORE.INTRA.DIHEDRAL>
0.0571694

>  <SCORE.INTRA.DIHEDRAL.0>
0.000126437

>  <SCORE.INTRA.POLAR>
0.0222916

>  <SCORE.INTRA.POLAR.0>
-0.372

>  <SCORE.INTRA.REPUL>
0

>  <SCORE.INTRA.REPUL.0>
0

>  <SCORE.INTRA.VDW>
-0.00774104

>  <SCORE.INTRA.VDW.0>
0.092436

>  <SCORE.INTRA.norm>
0.00603969

>  <SCORE.RESTR>
0

>  <SCORE.RESTR.CAVITY>
0

>  <SCORE.RESTR.norm>
0

>  <SCORE.SYSTEM>
-1.51346

>  <SCORE.SYSTEM.CONST>
0

>  <SCORE.SYSTEM.DIHEDRAL>
0.41018

>  <SCORE.SYSTEM.POLAR>
-0.503052

>  <SCORE.SYSTEM.VDW>
-0.00817525

>  <SCORE.SYSTEM.norm>
-0.0945915

>  <SCORE.heavy>
16

>  <SCORE.norm>
-0.935557

>  <enum_code>
T

>  <enum_smi>
CC1=NN2C(=NC3=CCCC3=C2O)C1C#N

>  <sha256>
39e1b0cb6462242f67993cb5678037f9b85a03408faf08abbd395fb60bce143b

>  <std_smi>
Cc1nn2c(O)c3c(nc2c1C#N)CCC3

>  <uuid>
163c1d93-f723-4918-9bfb-3fc37b23e625

$$$$
163c1d93-f723-4918-9bfb-3fc37b23e625
  rDOCK(R)          3D
libRbt.so/2013.1/901 2013/11/27
 17 19  0  0  0  0  0  0  0  0999 V2000
   -0.6962   24.6462    6.7330 C   0  0  0  0  0  0
   -1.8703   24.3681    5.8525 C   0  0  0  0  0  0
   -2.2794   23.1572    5.5744 N   0  0  0  0  0  0
   -3.3745   23.3424    4.7672 N   0  0  0  0  0  0
   -4.1728   22.3493    4.2476 C   0  0  0  0  0  0
   -3.8453   21.0467    4.5032 O   0  0  0  0  0  0
   -5.2336   22.7193    3.5185 C   0  0  0  0  0  0
   -5.5126   24.1301    3.3039 C   0  0  0  0  0  0
   -4.7200   25.1210    3.8354 N   0  0  0  0  0  0
   -3.7090   24.6666    4.5165 C   0  0  0  0  0  0
   -2.6824   25.4942    5.2238 C   0  0  0  0  0  0
   -1.8696   26.2657    4.2940 C   0  0  0  0  0  0
   -1.1775   26.8861    3.5987 N   0  0  0  0  0  0
   -6.6021   24.2844    2.5541 C   0  0  0  0  0  0
   -7.1940   22.9634    2.1674 C   0  0  0  0  0  0
   -6.2794   21.9117    2.8216 C   0  0  0  0  0  0
   -3.1475   21.1355    5.1825 H   0  0  0  0  0  0
  1  2  1  0  0  0
  2  3  2  0  0  0
  3  4  1  0  0  0
  4  5  1  0  0  0
  5  6  1  0  0  0
  5  7  2  0  0  0
  7  8  1  0  0  0
  8  9  1  0  0  0
  9 10  2  0  0  0
 10 11  1  0  0  0
 11 12  1  0  0  0
 12 13  3  0  0  0
  8 14  2  0  0  0
 14 15  1  0  0  0
 15 16  1  0  0  0
 11  2  1  0  0  0
 10  4  1  0  0  0
 16  7  1  0  0  0
  6 17  1  0  0  0
M  END
>  <CHROM.0>
-59.88758699,68.42712529

>  <CHROM.1>
10.25450701,-3.80662938,23.90664471,4.23756201,-0.27339112,0.58490152,2.81677703

>  <Name>
163c1d93-f723-4918-9bfb-3fc37b23e625

>  <RI>
3.97612e+07

>  <Rbt.Current_Directory>
/data/work/jku/5V6S/work/40/8dba899c20c42488f2b1a17844994e

>  <Rbt.Executable>
rbdock ($Id: //depot/dev/client3/rdock/2013.1/src/exe/rbdock.cxx#4 $)

>  <Rbt.Library>
libRbt.so (2013.1, Build901 2013/11/27)

>  <Rbt.Parameter_File>
/rDock_2013.1_src/data/scripts/dock.prm

>  <Rbt.Receptor>
docking.prm

>  <SCORE>
-10.9955

>  <SCORE.INTER>
-9.65506

>  <SCORE.INTER.CONST>
1

>  <SCORE.INTER.POLAR>
-0.3149

>  <SCORE.INTER.REPUL>
0

>  <SCORE.INTER.ROT>
0

>  <SCORE.INTER.VDW>
-13.9844

>  <SCORE.INTER.norm>
-0.603441

>  <SCORE.INTRA>
0.172149

>  <SCORE.INTRA.DIHEDRAL>
0.154055

>  <SCORE.INTRA.DIHEDRAL.0>
0.000126437

>  <SCORE.INTRA.POLAR>
0.034057

>  <SCORE.INTRA.POLAR.0>
-0.372

>  <SCORE.INTRA.REPUL>
0

>  <SCORE.INTRA.REPUL.0>
0

>  <SCORE.INTRA.VDW>
-0.0206725

>  <SCORE.INTRA.VDW.0>
0.092436

>  <SCORE.INTRA.norm>
0.0107593

>  <SCORE.RESTR>
0

>  <SCORE.RESTR.CAVITY>
0

>  <SCORE.RESTR.norm>
0

>  <SCORE.SYSTEM>
-1.51256

>  <SCORE.SYSTEM.CONST>
0

>  <SCORE.SYSTEM.DIHEDRAL>
0.352434

>  <SCORE.SYSTEM.POLAR>
-0.502502

>  <SCORE.SYSTEM.VDW>
0.0197286

>  <SCORE.SYSTEM.norm>
-0.0945352

>  <SCORE.heavy>
16

>  <SCORE.norm>
-0.687217

>  <enum_code>
T

>  <enum_smi>
CC1=NN2C(=NC3=CCCC3=C2O)C1C#N

>  <sha256>
39e1b0cb6462242f67993cb5678037f9b85a03408faf08abbd395fb60bce143b

>  <std_smi>
Cc1nn2c(O)c3c(nc2c1C#N)CCC3

>  <uuid>
163c1d93-f723-4918-9bfb-3fc37b23e625

$$$$
163c1d93-f723-4918-9bfb-3fc37b23e625
  rDOCK(R)          3D
libRbt.so/2013.1/901 2013/11/27
 17 19  0  0  0  0  0  0  0  0999 V2000
   -0.4131   24.5514    6.9258 C   0  0  0  0  0  0
   -0.6069   25.5094    5.7963 C   0  0  0  0  0  0
   -1.3475   26.5832    5.8941 N   0  0  0  0  0  0
   -1.2435   27.1843    4.6640 N   0  0  0  0  0  0
   -1.8239   28.3761    4.2951 C   0  0  0  0  0  0
   -2.6200   29.0228    5.1993 O   0  0  0  0  0  0
   -1.5713   28.8383    3.0637 C   0  0  0  0  0  0
   -0.7042   28.0886    2.1690 C   0  0  0  0  0  0
   -0.1149   26.9037    2.5451 N   0  0  0  0  0  0
   -0.4276   26.5291    3.7510 C   0  0  0  0  0  0
    0.0648   25.2980    4.4446 C   0  0  0  0  0  0
   -0.4206   24.0824    3.8067 C   0  0  0  0  0  0
   -0.7953   23.0819    3.3526 N   0  0  0  0  0  0
   -0.5854   28.7123    0.9986 C   0  0  0  0  0  0
   -1.3795   29.9825    0.9704 C   0  0  0  0  0  0
   -2.0358   30.0715    2.3604 C   0  0  0  0  0  0
   -2.5622   28.4411    5.9832 H   0  0  0  0  0  0
  1  2  1  0  0  0
  2  3  2  0  0  0
  3  4  1  0  0  0
  4  5  1  0  0  0
  5  6  1  0  0  0
  5  7  2  0  0  0
  7  8  1  0  0  0
  8  9  1  0  0  0
  9 10  2  0  0  0
 10 11  1  0  0  0
 11 12  1  0  0  0
 12 13  3  0  0  0
  8 14  2  0  0  0
 14 15  1  0  0  0
 15 16  1  0  0  0
 11  2  1  0  0  0
 10  4  1  0  0  0
 16  7  1  0  0  0
  6 17  1  0  0  0
M  END
>  <CHROM.0>
-59.88758699,68.69134798

>  <CHROM.1>
1.79627815,-1.03232545,27.07306135,3.81024966,1.14508984,-1.16945111,2.17643511

>  <Name>
163c1d93-f723-4918-9bfb-3fc37b23e625

>  <RI>
3.97612e+07

>  <Rbt.Current_Directory>
/data/work/jku/5V6S/work/40/8dba899c20c42488f2b1a17844994e

>  <Rbt.Executable>
rbdock ($Id: //depot/dev/client3/rdock/2013.1/src/exe/rbdock.cxx#4 $)

>  <Rbt.Library>
libRbt.so (2013.1, Build901 2013/11/27)

>  <Rbt.Parameter_File>
/rDock_2013.1_src/data/scripts/dock.prm

>  <Rbt.Receptor>
docking.prm

>  <SCORE>
-11.735

>  <SCORE.INTER>
-10.2233

>  <SCORE.INTER.CONST>
1

>  <SCORE.INTER.POLAR>
0

>  <SCORE.INTER.REPUL>
0

>  <SCORE.INTER.ROT>
0

>  <SCORE.INTER.VDW>
-15.6233

>  <SCORE.INTER.norm>
-0.638954

>  <SCORE.INTRA>
-0.000485334

>  <SCORE.INTRA.DIHEDRAL>
0.00497065

>  <SCORE.INTRA.DIHEDRAL.0>
0.000126437

>  <SCORE.INTRA.POLAR>
-0.000671534

>  <SCORE.INTRA.POLAR.0>
-0.372

>  <SCORE.INTRA.REPUL>
0

>  <SCORE.INTRA.REPUL.0>
0

>  <SCORE.INTRA.VDW>
-0.000687442

>  <SCORE.INTRA.VDW.0>
0.092436

>  <SCORE.INTRA.norm>
-3.03334e-05

>  <SCORE.RESTR>
0.00223671

>  <SCORE.RESTR.CAVITY>
0.00223671

>  <SCORE.RESTR.norm>
0.000139794

>  <SCORE.SYSTEM>
-1.51344

>  <SCORE.SYSTEM.CONST>
0

>  <SCORE.SYSTEM.DIHEDRAL>
0.374015

>  <SCORE.SYSTEM.POLAR>
-0.502759

>  <SCORE.SYSTEM.VDW>
0.00892917

>  <SCORE.SYSTEM.norm>
-0.0945902

>  <SCORE.heavy>
16

>  <SCORE.norm>
-0.733435

>  <enum_code>
T

>  <enum_smi>
CC1=NN2C(=NC3=CCCC3=C2O)C1C#N

>  <sha256>
39e1b0cb6462242f67993cb5678037f9b85a03408faf08abbd395fb60bce143b

>  <std_smi>
Cc1nn2c(O)c3c(nc2c1C#N)CCC3

>  <uuid>
163c1d93-f723-4918-9bfb-3fc37b23e625

$$$$
163c1d93-f723-4918-9bfb-3fc37b23e625
  rDOCK(R)          3D
libRbt.so/2013.1/901 2013/11/27
 17 19  0  0  0  0  0  0  0  0999 V2000
   -2.0424   26.5703    6.4211 C   0  0  0  0  0  0
   -1.9803   27.7296    5.4812 C   0  0  0  0  0  0
   -1.8541   28.9670    5.8860 N   0  0  0  0  0  0
   -1.8180   29.7043    4.7283 N   0  0  0  0  0  0
   -1.6548   31.0679    4.6432 C   0  0  0  0  0  0
   -1.5626   31.7886    5.8015 O   0  0  0  0  0  0
   -1.5926   31.6137    3.4217 C   0  0  0  0  0  0
   -1.6909   30.7695    2.2418 C   0  0  0  0  0  0
   -1.8411   29.4048    2.3300 N   0  0  0  0  0  0
   -1.9036   28.9683    3.5538 C   0  0  0  0  0  0
   -2.0499   27.5385    3.9707 C   0  0  0  0  0  0
   -3.3370   26.9846    3.5749 C   0  0  0  0  0  0
   -4.3551   26.4974    3.3035 N   0  0  0  0  0  0
   -1.6111   31.5019    1.1326 C   0  0  0  0  0  0
   -1.4482   32.9578    1.4468 C   0  0  0  0  0  0
   -1.4278   33.0325    2.9845 C   0  0  0  0  0  0
   -1.7715   32.6955    5.5011 H   0  0  0  0  0  0
  1  2  1  0  0  0
  2  3  2  0  0  0
  3  4  1  0  0  0
  4  5  1  0  0  0
  5  6  1  0  0  0
  5  7  2  0  0  0
  7  8  1  0  0  0
  8  9  1  0  0  0
  9 10  2  0  0  0
 10 11  1  0  0  0
 11 12  1  0  0  0
 12 13  3  0  0  0
  8 14  2  0  0  0
 14 15  1  0  0  0
 15 16  1  0  0  0
 11  2  1  0  0  0
 10  4  1  0  0  0
 16  7  1  0  0  0
  6 17  1  0  0  0
M  END
>  <CHROM.0>
-59.88758699,68.68977537

>  <CHROM.1>
-160.81097982,-2.00612981,29.72396296,3.85727253,-2.21844493,-1.22618938
-1.04482412

>  <Name>
163c1d93-f723-4918-9bfb-3fc37b23e625

>  <RI>
3.97612e+07

>  <Rbt.Current_Directory>
/data/work/jku/5V6S/work/40/8dba899c20c42488f2b1a17844994e

>  <Rbt.Executable>
rbdock ($Id: //depot/dev/client3/rdock/2013.1/src/exe/rbdock.cxx#4 $)

>  <Rbt.Library>
libRbt.so (2013.1, Build901 2013/11/27)

>  <Rbt.Parameter_File>
/rDock_2013.1_src/data/scripts/dock.prm

>  <Rbt.Receptor>
docking.prm

>  <SCORE>
-11.912

>  <SCORE.INTER>
-12.3228

>  <SCORE.INTER.CONST>
1

>  <SCORE.INTER.POLAR>
-0.885099

>  <SCORE.INTER.REPUL>
0.00278409

>  <SCORE.INTER.ROT>
0

>  <SCORE.INTER.VDW>
-14.7273

>  <SCORE.INTER.norm>
-0.770173

>  <SCORE.INTRA>
1.92418

>  <SCORE.INTRA.DIHEDRAL>
0.522081

>  <SCORE.INTRA.DIHEDRAL.0>
0.000126437

>  <SCORE.INTRA.POLAR>
0.372

>  <SCORE.INTRA.POLAR.0>
-0.372

>  <SCORE.INTRA.REPUL>
0

>  <SCORE.INTRA.REPUL.0>
0

>  <SCORE.INTRA.VDW>
0.398339

>  <SCORE.INTRA.VDW.0>
0.092436

>  <SCORE.INTRA.norm>
0.120261

>  <SCORE.RESTR>
0

>  <SCORE.RESTR.CAVITY>
0

>  <SCORE.RESTR.norm>
0

>  <SCORE.SYSTEM>
-1.51344

>  <SCORE.SYSTEM.CONST>
0

>  <SCORE.SYSTEM.DIHEDRAL>
0.373885

>  <SCORE.SYSTEM.POLAR>
-0.502757

>  <SCORE.SYSTEM.VDW>
0.00899297

>  <SCORE.SYSTEM.norm>
-0.09459

>  <SCORE.heavy>
16

>  <SCORE.norm>
-0.744502

>  <enum_code>
T

>  <enum_smi>
CC1=NN2C(=NC3=CCCC3=C2O)C1C#N

>  <sha256>
39e1b0cb6462242f67993cb5678037f9b85a03408faf08abbd395fb60bce143b

>  <std_smi>
Cc1nn2c(O)c3c(nc2c1C#N)CCC3

>  <uuid>
163c1d93-f723-4918-9bfb-3fc37b23e625

$$$$
ce599483-2311-4e66-b18d-2046a4274bb0
  rDOCK(R)          3D
libRbt.so/2013.1/901 2013/11/27
 16 18  0  0  0  0  0  0  0  0999 V2000
   -8.2394   26.8213    4.0079 C   0  0  0  0  0  0
   -6.8270   26.4427    4.3063 C   0  0  0  0  0  0
   -5.9074   27.3075    4.6202 N   0  0  0  0  0  0
   -4.7554   26.5770    4.8307 N   0  0  0  0  0  0
   -3.5520   27.1576    5.2167 C   0  0  0  0  0  0
   -3.3900   28.3405    5.5091 O   0  0  0  0  0  0
   -2.4022   26.1630    5.1532 C   0  0  0  0  0  0
   -2.8897   24.7740    5.4576 C   0  0  0  0  0  0
   -4.0786   24.2862    4.9975 N   0  0  0  0  0  0
   -4.9457   25.2032    4.7181 C   0  0  0  0  0  0
   -6.3563   25.0126    4.2773 C   0  0  0  0  0  0
   -6.4255   24.4628    2.9304 C   0  0  0  0  0  0
   -6.5229   24.0434    1.8526 N   0  0  0  0  0  0
   -2.0441   24.1181    6.2553 C   0  0  0  0  0  0
   -0.8750   24.9686    6.6287 C   0  0  0  0  0  0
   -1.3274   26.3738    6.2195 C   0  0  0  0  0  0
  1  2  1  0  0  0
  2  3  2  0  0  0
  3  4  1  0  0  0
  4  5  1  0  0  0
  5  6  2  0  0  0
  5  7  1  0  0  0
  7  8  1  0  0  0
  8  9  1  0  0  0
  9 10  2  0  0  0
 10 11  1  0  0  0
 11 12  1  0  0  0
 12 13  3  0  0  0
  8 14  2  0  0  0
 14 15  1  0  0  0
 15 16  1  0  0  0
 11  2  1  0  0  0
 10  4  1  0  0  0
 16  7  1  0  0  0
M  END
>  <CHROM.0>
-59.88758699,69.07885583

>  <CHROM.1>
-4.40393449,25.79827268,4.82179366,3.01353322,0.44358660,-2.85525536

>  <Name>
ce599483-2311-4e66-b18d-2046a4274bb0

>  <RI>
3.29864e+07

>  <Rbt.Current_Directory>
/data/work/jku/5V6S/work/40/8dba899c20c42488f2b1a17844994e

>  <Rbt.Executable>
rbdock ($Id: //depot/dev/client3/rdock/2013.1/src/exe/rbdock.cxx#4 $)

>  <Rbt.Library>
libRbt.so (2013.1, Build901 2013/11/27)

>  <Rbt.Parameter_File>
/rDock_2013.1_src/data/scripts/dock.prm

>  <Rbt.Receptor>
docking.prm

>  <SCORE>
-11.6407

>  <SCORE.INTER>
-10.1272

>  <SCORE.INTER.CONST>
1

>  <SCORE.INTER.POLAR>
0

>  <SCORE.INTER.REPUL>
0

>  <SCORE.INTER.ROT>
0

>  <SCORE.INTER.VDW>
-15.5272

>  <SCORE.INTER.norm>
-0.63295

>  <SCORE.INTRA>
0

>  <SCORE.INTRA.DIHEDRAL>
0

>  <SCORE.INTRA.DIHEDRAL.0>
0

>  <SCORE.INTRA.POLAR>
0

>  <SCORE.INTRA.POLAR.0>
0

>  <SCORE.INTRA.REPUL>
0

>  <SCORE.INTRA.REPUL.0>
0

>  <SCORE.INTRA.VDW>
0

>  <SCORE.INTRA.VDW.0>
0

>  <SCORE.INTRA.norm>
0

>  <SCORE.RESTR>
0

>  <SCORE.RESTR.CAVITY>
0

>  <SCORE.RESTR.norm>
0

>  <SCORE.SYSTEM>
-1.51353

>  <SCORE.SYSTEM.CONST>
0

>  <SCORE.SYSTEM.DIHEDRAL>
0.406783

>  <SCORE.SYSTEM.POLAR>
-0.503032

>  <SCORE.SYSTEM.VDW>
-0.00661791

>  <SCORE.SYSTEM.norm>
-0.0945959

>  <SCORE.heavy>
16

>  <SCORE.norm>
-0.727545

>  <enum_code>
T

>  <enum_smi>
CC1=NN2C(=O)C3CCC=C3N=C2C1C#N

>  <sha256>
39e1b0cb6462242f67993cb5678037f9b85a03408faf08abbd395fb60bce143b

>  <std_smi>
Cc1nn2c(O)c3c(nc2c1C#N)CCC3

>  <uuid>
ce599483-2311-4e66-b18d-2046a4274bb0

$$$$
ce599483-2311-4e66-b18d-2046a4274bb0
  rDOCK(R)          3D
libRbt.so/2013.1/901 2013/11/27
 16 18  0  0  0  0  0  0  0  0999 V2000
   -6.3273   21.8189    3.1346 C   0  0  0  0  0  0
   -5.0550   22.4988    3.5172 C   0  0  0  0  0  0
   -4.9600   23.7825    3.7043 N   0  0  0  0  0  0
   -3.6456   24.0192    4.0522 N   0  0  0  0  0  0
   -3.1619   25.2858    4.3619 C   0  0  0  0  0  0
   -3.8406   26.3058    4.4620 O   0  0  0  0  0  0
   -1.6450   25.2943    4.4822 C   0  0  0  0  0  0
   -1.1501   23.9720    4.9982 C   0  0  0  0  0  0
   -1.6740   22.7759    4.6006 N   0  0  0  0  0  0
   -2.8864   22.8581    4.1599 C   0  0  0  0  0  0
   -3.7718   21.7398    3.7290 C   0  0  0  0  0  0
   -3.3056   21.1369    2.4879 C   0  0  0  0  0  0
   -2.9776   20.6423    1.4905 N   0  0  0  0  0  0
   -0.1853   24.1270    5.9075 C   0  0  0  0  0  0
    0.0995   25.5708    6.1604 C   0  0  0  0  0  0
   -1.1009   26.2753    5.5205 C   0  0  0  0  0  0
  1  2  1  0  0  0
  2  3  2  0  0  0
  3  4  1  0  0  0
  4  5  1  0  0  0
  5  6  2  0  0  0
  5  7  1  0  0  0
  7  8  1  0  0  0
  8  9  1  0  0  0
  9 10  2  0  0  0
 10 11  1  0  0  0
 11 12  1  0  0  0
 12 13  3  0  0  0
  8 14  2  0  0  0
 14 15  1  0  0  0
 15 16  1  0  0  0
 11  2  1  0  0  0
 10  4  1  0  0  0
 16  7  1  0  0  0
M  END
>  <CHROM.0>
-59.88758699,69.11714560

>  <CHROM.1>
-2.87604742,23.66925054,4.17617027,2.26769275,0.26575749,-2.73963515

>  <Name>
ce599483-2311-4e66-b18d-2046a4274bb0

>  <RI>
3.29864e+07

>  <Rbt.Current_Directory>
/data/work/jku/5V6S/work/40/8dba899c20c42488f2b1a17844994e

>  <Rbt.Executable>
rbdock ($Id: //depot/dev/client3/rdock/2013.1/src/exe/rbdock.cxx#4 $)

>  <Rbt.Library>
libRbt.so (2013.1, Build901 2013/11/27)

>  <Rbt.Parameter_File>
/rDock_2013.1_src/data/scripts/dock.prm

>  <Rbt.Receptor>
docking.prm

>  <SCORE>
-9.79776

>  <SCORE.INTER>
-8.28429

>  <SCORE.INTER.CONST>
1

>  <SCORE.INTER.POLAR>
0

>  <SCORE.INTER.REPUL>
0

>  <SCORE.INTER.ROT>
0

>  <SCORE.INTER.VDW>
-13.6843

>  <SCORE.INTER.norm>
-0.517768

>  <SCORE.INTRA>
0

>  <SCORE.INTRA.DIHEDRAL>
0

>  <SCORE.INTRA.DIHEDRAL.0>
0

>  <SCORE.INTRA.POLAR>
0

>  <SCORE.INTRA.POLAR.0>
0

>  <SCORE.INTRA.REPUL>
0

>  <SCORE.INTRA.REPUL.0>
0

>  <SCORE.INTRA.VDW>
0

>  <SCORE.INTRA.VDW.0>
0

>  <SCORE.INTRA.norm>
0

>  <SCORE.RESTR>
0

>  <SCORE.RESTR.CAVITY>
0

>  <SCORE.RESTR.norm>
0

>  <SCORE.SYSTEM>
-1.51347

>  <SCORE.SYSTEM.CONST>
0

>  <SCORE.SYSTEM.DIHEDRAL>
0.410093

>  <SCORE.SYSTEM.POLAR>
-0.503052

>  <SCORE.SYSTEM.VDW>
-0.00813549

>  <SCORE.SYSTEM.norm>
-0.0945916

>  <SCORE.heavy>
16

>  <SCORE.norm>
-0.61236

>  <enum_code>
T

>  <enum_smi>
CC1=NN2C(=O)C3CCC=C3N=C2C1C#N

>  <sha256>
39e1b0cb6462242f67993cb5678037f9b85a03408faf08abbd395fb60bce143b

>  <std_smi>
Cc1nn2c(O)c3c(nc2c1C#N)CCC3

>  <uuid>
ce599483-2311-4e66-b18d-2046a4274bb0

$$$$
ce599483-2311-4e66-b18d-2046a4274bb0
  rDOCK(R)          3D
libRbt.so/2013.1/901 2013/11/27
 16 18  0  0  0  0  0  0  0  0999 V2000
   -3.4663   29.4367   -0.4615 C   0  0  0  0  0  0
   -2.8834   28.7605    0.7343 C   0  0  0  0  0  0
   -3.6048   28.2694    1.6990 N   0  0  0  0  0  0
   -2.7129   27.7251    2.6008 N   0  0  0  0  0  0
   -3.1146   27.0743    3.7623 C   0  0  0  0  0  0
   -4.2759   26.8190    4.0739 O   0  0  0  0  0  0
   -1.9354   26.7793    4.6778 C   0  0  0  0  0  0
   -0.6913   26.5318    3.8712 C   0  0  0  0  0  0
   -0.3702   27.2557    2.7595 N   0  0  0  0  0  0
   -1.3884   27.8033    2.1814 C   0  0  0  0  0  0
   -1.3986   28.5833    0.9118 C   0  0  0  0  0  0
   -0.7301   29.8678    1.0685 C   0  0  0  0  0  0
   -0.2226   30.9077    1.1579 N   0  0  0  0  0  0
    0.0128   25.5053    4.3529 C   0  0  0  0  0  0
   -0.6578   24.8913    5.5373 C   0  0  0  0  0  0
   -2.0688   25.4847    5.4795 C   0  0  0  0  0  0
  1  2  1  0  0  0
  2  3  2  0  0  0
  3  4  1  0  0  0
  4  5  1  0  0  0
  5  6  2  0  0  0
  5  7  1  0  0  0
  7  8  1  0  0  0
  8  9  1  0  0  0
  9 10  2  0  0  0
 10 11  1  0  0  0
 11 12  1  0  0  0
 12 13  3  0  0  0
  8 14  2  0  0  0
 14 15  1  0  0  0
 15 16  1  0  0  0
 11  2  1  0  0  0
 10  4  1  0  0  0
 16  7  1  0  0  0
M  END
>  <CHROM.0>
-59.88758699,68.90166233

>  <CHROM.1>
-1.88863589,27.59723422,2.78605819,1.67682786,-0.08458751,-0.83497327

>  <Name>
ce599483-2311-4e66-b18d-2046a4274bb0

>  <RI>
3.29864e+07

>  <Rbt.Current_Directory>
/data/work/jku/5V6S/work/40/8dba899c20c42488f2b1a17844994e

>  <Rbt.Executable>
rbdock ($Id: //depot/dev/client3/rdock/2013.1/src/exe/rbdock.cxx#4 $)

>  <Rbt.Library>
libRbt.so (2013.1, Build901 2013/11/27)

>  <Rbt.Parameter_File>
/rDock_2013.1_src/data/scripts/dock.prm

>  <Rbt.Receptor>
docking.prm

>  <SCORE>
-11.8919

>  <SCORE.INTER>
-10.3782

>  <SCORE.INTER.CONST>
1

>  <SCORE.INTER.POLAR>
0

>  <SCORE.INTER.REPUL>
0

>  <SCORE.INTER.ROT>
0

>  <SCORE.INTER.VDW>
-15.7782

>  <SCORE.INTER.norm>
-0.648639

>  <SCORE.INTRA>
0

>  <SCORE.INTRA.DIHEDRAL>
0

>  <SCORE.INTRA.DIHEDRAL.0>
0

>  <SCORE.INTRA.POLAR>
0

>  <SCORE.INTRA.POLAR.0>
0

>  <SCORE.INTRA.REPUL>
0

>  <SCORE.INTRA.REPUL.0>
0

>  <SCORE.INTRA.VDW>
0

>  <SCORE.INTRA.VDW.0>
0

>  <SCORE.INTRA.norm>
0

>  <SCORE.RESTR>
0

>  <SCORE.RESTR.CAVITY>
0

>  <SCORE.RESTR.norm>
0

>  <SCORE.SYSTEM>
-1.51367

>  <SCORE.SYSTEM.CONST>
0

>  <SCORE.SYSTEM.DIHEDRAL>
0.391635

>  <SCORE.SYSTEM.POLAR>
-0.502922

>  <SCORE.SYSTEM.VDW>
0.00044849

>  <SCORE.SYSTEM.norm>
-0.0946043

>  <SCORE.heavy>
16

>  <SCORE.norm>
-0.743243

>  <enum_code>
T

>  <enum_smi>
CC1=NN2C(=O)C3CCC=C3N=C2C1C#N

>  <sha256>
39e1b0cb6462242f67993cb5678037f9b85a03408faf08abbd395fb60bce143b

>  <std_smi>
Cc1nn2c(O)c3c(nc2c1C#N)CCC3

>  <uuid>
ce599483-2311-4e66-b18d-2046a4274bb0

$$$$
ce599483-2311-4e66-b18d-2046a4274bb0
  rDOCK(R)          3D
libRbt.so/2013.1/901 2013/11/27
 16 18  0  0  0  0  0  0  0  0999 V2000
   -0.1959   24.8070    5.2172 C   0  0  0  0  0  0
   -1.5879   25.1486    4.8016 C   0  0  0  0  0  0
   -2.4992   24.2536    4.5553 N   0  0  0  0  0  0
   -3.6389   24.9551    4.2179 N   0  0  0  0  0  0
   -4.8460   24.3350    3.9136 C   0  0  0  0  0  0
   -5.0734   23.1303    4.0021 O   0  0  0  0  0  0
   -5.8614   25.3233    3.3588 C   0  0  0  0  0  0
   -5.6561   26.6844    3.9628 C   0  0  0  0  0  0
   -4.4205   27.2183    4.1892 N   0  0  0  0  0  0
   -3.4850   26.3348    4.3125 C   0  0  0  0  0  0
   -2.0520   26.5725    4.6445 C   0  0  0  0  0  0
   -1.3535   27.2365    3.5524 C   0  0  0  0  0  0
   -0.7571   27.7475    2.6979 N   0  0  0  0  0  0
   -6.8162   27.2634    4.2801 C   0  0  0  0  0  0
   -7.9741   26.3758    3.9627 C   0  0  0  0  0  0
   -7.3108   25.0141    3.7331 C   0  0  0  0  0  0
  1  2  1  0  0  0
  2  3  2  0  0  0
  3  4  1  0  0  0
  4  5  1  0  0  0
  5  6  2  0  0  0
  5  7  1  0  0  0
  7  8  1  0  0  0
  8  9  1  0  0  0
  9 10  2  0  0  0
 10 11  1  0  0  0
 11 12  1  0  0  0
 12 13  3  0  0  0
  8 14  2  0  0  0
 14 15  1  0  0  0
 15 16  1  0  0  0
 11  2  1  0  0  0
 10  4  1  0  0  0
 16  7  1  0  0  0
M  END
>  <CHROM.0>
-59.88758699,69.37047839

>  <CHROM.1>
-3.97757280,25.72924125,4.09112434,-0.03497420,0.06773839,2.95735205

>  <Name>
ce599483-2311-4e66-b18d-2046a4274bb0

>  <RI>
3.29864e+07

>  <Rbt.Current_Directory>
/data/work/jku/5V6S/work/40/8dba899c20c42488f2b1a17844994e

>  <Rbt.Executable>
rbdock ($Id: //depot/dev/client3/rdock/2013.1/src/exe/rbdock.cxx#4 $)

>  <Rbt.Library>
libRbt.so (2013.1, Build901 2013/11/27)

>  <Rbt.Parameter_File>
/rDock_2013.1_src/data/scripts/dock.prm

>  <Rbt.Receptor>
docking.prm

>  <SCORE>
-11.3328

>  <SCORE.INTER>
-9.82011

>  <SCORE.INTER.CONST>
1

>  <SCORE.INTER.POLAR>
0

>  <SCORE.INTER.REPUL>
0

>  <SCORE.INTER.ROT>
0

>  <SCORE.INTER.VDW>
-15.2201

>  <SCORE.INTER.norm>
-0.613757

>  <SCORE.INTRA>
0

>  <SCORE.INTRA.DIHEDRAL>
0

>  <SCORE.INTRA.DIHEDRAL.0>
0

>  <SCORE.INTRA.POLAR>
0

>  <SCORE.INTRA.POLAR.0>
0

>  <SCORE.INTRA.REPUL>
0

>  <SCORE.INTRA.REPUL.0>
0

>  <SCORE.INTRA.VDW>
0

>  <SCORE.INTRA.VDW.0>
0

>  <SCORE.INTRA.norm>
0

>  <SCORE.RESTR>
0

>  <SCORE.RESTR.CAVITY>
0

>  <SCORE.RESTR.norm>
0

>  <SCORE.SYSTEM>
-1.51267

>  <SCORE.SYSTEM.CONST>
0

>  <SCORE.SYSTEM.DIHEDRAL>
0.432313

>  <SCORE.SYSTEM.POLAR>
-0.503157

>  <SCORE.SYSTEM.VDW>
-0.0180923

>  <SCORE.SYSTEM.norm>
-0.0945419

>  <SCORE.heavy>
16

>  <SCORE.norm>
-0.708299

>  <enum_code>
T

>  <enum_smi>
CC1=NN2C(=O)C3CCC=C3N=C2C1C#N

>  <sha256>
39e1b0cb6462242f67993cb5678037f9b85a03408faf08abbd395fb60bce143b

>  <std_smi>
Cc1nn2c(O)c3c(nc2c1C#N)CCC3

>  <uuid>
ce599483-2311-4e66-b18d-2046a4274bb0

$$$$
ce599483-2311-4e66-b18d-2046a4274bb0
  rDOCK(R)          3D
libRbt.so/2013.1/901 2013/11/27
 16 18  0  0  0  0  0  0  0  0999 V2000
   -2.2678   28.1914    6.1097 C   0  0  0  0  0  0
   -1.9010   29.0016    4.9113 C   0  0  0  0  0  0
   -1.7023   30.2865    4.9519 N   0  0  0  0  0  0
   -1.3756   30.6610    3.6643 N   0  0  0  0  0  0
   -1.0613   31.9698    3.3144 C   0  0  0  0  0  0
   -0.9384   32.9095    4.0972 O   0  0  0  0  0  0
   -0.9683   32.1412    1.8052 C   0  0  0  0  0  0
   -0.4752   30.8758    1.1607 C   0  0  0  0  0  0
   -0.8758   29.6336    1.5599 N   0  0  0  0  0  0
   -1.2937   29.5879    2.7823 C   0  0  0  0  0  0
   -1.7203   28.3841    3.5498 C   0  0  0  0  0  0
   -2.9759   27.8457    3.0450 C   0  0  0  0  0  0
   -3.9841   27.3979    2.6844 N   0  0  0  0  0  0
    0.4182   31.1266    0.2013 C   0  0  0  0  0  0
    0.6811   32.5905    0.0692 C   0  0  0  0  0  0
    0.0703   33.1665    1.3506 C   0  0  0  0  0  0
  1  2  1  0  0  0
  2  3  2  0  0  0
  3  4  1  0  0  0
  4  5  1  0  0  0
  5  6  2  0  0  0
  5  7  1  0  0  0
  7  8  1  0  0  0
  8  9  1  0  0  0
  9 10  2  0  0  0
 10 11  1  0  0  0
 11 12  1  0  0  0
 12 13  3  0  0  0
  8 14  2  0  0  0
 14 15  1  0  0  0
 15 16  1  0  0  0
 11  2  1  0  0  0
 10  4  1  0  0  0
 16  7  1  0  0  0
M  END
>  <CHROM.0>
-59.88758699,68.82336337

>  <CHROM.1>
-1.26912261,30.39524634,2.85926553,-2.95286828,-1.09421010,-2.03020047

>  <Name>
ce599483-2311-4e66-b18d-2046a4274bb0

>  <RI>
3.29864e+07

>  <Rbt.Current_Directory>
/data/work/jku/5V6S/work/40/8dba899c20c42488f2b1a17844994e

>  <Rbt.Executable>
rbdock ($Id: //depot/dev/client3/rdock/2013.1/src/exe/rbdock.cxx#4 $)

>  <Rbt.Library>
libRbt.so (2013.1, Build901 2013/11/27)

>  <Rbt.Parameter_File>
/rDock_2013.1_src/data/scripts/dock.prm

>  <Rbt.Receptor>
docking.prm

>  <SCORE>
-12.0037

>  <SCORE.INTER>
-10.4901

>  <SCORE.INTER.CONST>
1

>  <SCORE.INTER.POLAR>
0

>  <SCORE.INTER.REPUL>
0.272453

>  <SCORE.INTER.ROT>
0

>  <SCORE.INTER.VDW>
-17.2523

>  <SCORE.INTER.norm>
-0.655629

>  <SCORE.INTRA>
0

>  <SCORE.INTRA.DIHEDRAL>
0

>  <SCORE.INTRA.DIHEDRAL.0>
0

>  <SCORE.INTRA.POLAR>
0

>  <SCORE.INTRA.POLAR.0>
0

>  <SCORE.INTRA.REPUL>
0

>  <SCORE.INTRA.REPUL.0>
0

>  <SCORE.INTRA.VDW>
0

>  <SCORE.INTRA.VDW.0>
0

>  <SCORE.INTRA.norm>
0

>  <SCORE.RESTR>
0

>  <SCORE.RESTR.CAVITY>
0

>  <SCORE.RESTR.norm>
0

>  <SCORE.SYSTEM>
-1.51363

>  <SCORE.SYSTEM.CONST>
0

>  <SCORE.SYSTEM.DIHEDRAL>
0.385029

>  <SCORE.SYSTEM.POLAR>
-0.502865

>  <SCORE.SYSTEM.VDW>
0.00359392

>  <SCORE.SYSTEM.norm>
-0.0946021

>  <SCORE.heavy>
16

>  <SCORE.norm>
-0.750231

>  <enum_code>
T

>  <enum_smi>
CC1=NN2C(=O)C3CCC=C3N=C2C1C#N

>  <sha256>
39e1b0cb6462242f67993cb5678037f9b85a03408faf08abbd395fb60bce143b

>  <std_smi>
Cc1nn2c(O)c3c(nc2c1C#N)CCC3

>  <uuid>
ce599483-2311-4e66-b18d-2046a4274bb0

$$$$
745f615f-fd1e-405a-af51-7e2b827f77db
  rDOCK(R)          3D
libRbt.so/2013.1/901 2013/11/27
 16 18  0  0  0  0  0  0  0  0999 V2000
   -4.0245   29.5374    5.7047 C   0  0  0  0  0  0
   -3.3332   28.2626    5.3512 C   0  0  0  0  0  0
   -3.9480   27.1196    5.2622 N   0  0  0  0  0  0
   -2.9777   26.1942    4.9384 N   0  0  0  0  0  0
   -3.2322   24.8401    4.7859 C   0  0  0  0  0  0
   -4.3098   24.2683    4.8903 O   0  0  0  0  0  0
   -1.9984   24.1000    4.4761 C   0  0  0  0  0  0
   -0.8262   24.7393    4.3984 C   0  0  0  0  0  0
   -0.6161   26.0798    4.5805 N   0  0  0  0  0  0
   -1.7016   26.7409    4.8283 C   0  0  0  0  0  0
   -1.8520   28.2003    5.0816 C   0  0  0  0  0  0
   -1.4947   28.9879    3.9097 C   0  0  0  0  0  0
   -1.2334   29.6536    2.9956 N   0  0  0  0  0  0
    0.2824   23.7912    4.0778 C   0  0  0  0  0  0
   -0.4779   22.5311    3.6417 C   0  0  0  0  0  0
   -1.8909   22.6435    4.2273 C   0  0  0  0  0  0
  1  2  1  0  0  0
  2  3  2  0  0  0
  3  4  1  0  0  0
  4  5  1  0  0  0
  5  6  2  0  0  0
  5  7  1  0  0  0
  7  8  2  0  0  0
  8  9  1  0  0  0
  9 10  2  0  0  0
 10 11  1  0  0  0
 11 12  1  0  0  0
 12 13  3  0  0  0
  8 14  1  0  0  0
 14 15  1  0  0  0
 15 16  1  0  0  0
 11  2  1  0  0  0
 10  4  1  0  0  0
 16  7  1  0  0  0
M  END
>  <CHROM.0>
-59.88758699,68.22266453

>  <CHROM.1>
-2.13290819,26.08478316,4.57477418,1.84550859,0.37176060,-0.00067060

>  <Name>
745f615f-fd1e-405a-af51-7e2b827f77db

>  <RI>
2.65393e+07

>  <Rbt.Current_Directory>
/data/work/jku/5V6S/work/40/8dba899c20c42488f2b1a17844994e

>  <Rbt.Executable>
rbdock ($Id: //depot/dev/client3/rdock/2013.1/src/exe/rbdock.cxx#4 $)

>  <Rbt.Library>
libRbt.so (2013.1, Build901 2013/11/27)

>  <Rbt.Parameter_File>
/rDock_2013.1_src/data/scripts/dock.prm

>  <Rbt.Receptor>
docking.prm

>  <SCORE>
-10.8988

>  <SCORE.INTER>
-9.38742

>  <SCORE.INTER.CONST>
1

>  <SCORE.INTER.POLAR>
0

>  <SCORE.INTER.REPUL>
0

>  <SCORE.INTER.ROT>
0

>  <SCORE.INTER.VDW>
-14.7874

>  <SCORE.INTER.norm>
-0.586713

>  <SCORE.INTRA>
0

>  <SCORE.INTRA.DIHEDRAL>
0

>  <SCORE.INTRA.DIHEDRAL.0>
0

>  <SCORE.INTRA.POLAR>
0

>  <SCORE.INTRA.POLAR.0>
0

>  <SCORE.INTRA.REPUL>
0

>  <SCORE.INTRA.REPUL.0>
0

>  <SCORE.INTRA.VDW>
0

>  <SCORE.INTRA.VDW.0>
0

>  <SCORE.INTRA.norm>
0

>  <SCORE.RESTR>
0

>  <SCORE.RESTR.CAVITY>
0

>  <SCORE.RESTR.norm>
0

>  <SCORE.SYSTEM>
-1.51142

>  <SCORE.SYSTEM.CONST>
0

>  <SCORE.SYSTEM.DIHEDRAL>
0.336162

>  <SCORE.SYSTEM.POLAR>
-0.502265

>  <SCORE.SYSTEM.VDW>
0.0281971

>  <SCORE.SYSTEM.norm>
-0.0944639

>  <SCORE.heavy>
16

>  <SCORE.norm>
-0.681177

>  <enum_code>
T

>  <enum_smi>
CC1=Nn2c(nc3c(c2=O)CCC3)C1C#N

>  <sha256>
39e1b0cb6462242f67993cb5678037f9b85a03408faf08abbd395fb60bce143b

>  <std_smi>
Cc1nn2c(O)c3c(nc2c1C#N)CCC3

>  <uuid>
745f615f-fd1e-405a-af51-7e2b827f77db

$$$$
745f615f-fd1e-405a-af51-7e2b827f77db
  rDOCK(R)          3D
libRbt.so/2013.1/901 2013/11/27
 16 18  0  0  0  0  0  0  0  0999 V2000
    0.0506   32.5751    0.3022 C   0  0  0  0  0  0
   -0.4701   31.5632    1.2680 C   0  0  0  0  0  0
   -0.1610   30.3008    1.2132 N   0  0  0  0  0  0
   -0.8458   29.7000    2.2489 N   0  0  0  0  0  0
   -0.8033   28.3385    2.5064 C   0  0  0  0  0  0
   -0.1689   27.4850    1.8995 O   0  0  0  0  0  0
   -1.6603   27.9879    3.6504 C   0  0  0  0  0  0
   -2.3700   28.9309    4.2794 C   0  0  0  0  0  0
   -2.4008   30.2655    3.9754 N   0  0  0  0  0  0
   -1.6292   30.5848    2.9856 C   0  0  0  0  0  0
   -1.4149   31.9293    2.3833 C   0  0  0  0  0  0
   -0.7890   32.8461    3.3263 C   0  0  0  0  0  0
   -0.2786   33.6056    4.0402 N   0  0  0  0  0  0
   -3.1643   28.3466    5.4011 C   0  0  0  0  0  0
   -2.5456   26.9499    5.5499 C   0  0  0  0  0  0
   -1.8449   26.6339    4.2227 C   0  0  0  0  0  0
  1  2  1  0  0  0
  2  3  2  0  0  0
  3  4  1  0  0  0
  4  5  1  0  0  0
  5  6  2  0  0  0
  5  7  1  0  0  0
  7  8  2  0  0  0
  8  9  1  0  0  0
  9 10  2  0  0  0
 10 11  1  0  0  0
 11 12  1  0  0  0
 12 13  3  0  0  0
  8 14  1  0  0  0
 14 15  1  0  0  0
 15 16  1  0  0  0
 11  2  1  0  0  0
 10  4  1  0  0  0
 16  7  1  0  0  0
M  END
>  <CHROM.0>
-59.88758699,68.81466536

>  <CHROM.1>
-1.26367278,29.84902231,3.06198739,-0.92274508,-1.05007599,-3.03641830

>  <Name>
745f615f-fd1e-405a-af51-7e2b827f77db

>  <RI>
2.65393e+07

>  <Rbt.Current_Directory>
/data/work/jku/5V6S/work/40/8dba899c20c42488f2b1a17844994e

>  <Rbt.Executable>
rbdock ($Id: //depot/dev/client3/rdock/2013.1/src/exe/rbdock.cxx#4 $)

>  <Rbt.Library>
libRbt.so (2013.1, Build901 2013/11/27)

>  <Rbt.Parameter_File>
/rDock_2013.1_src/data/scripts/dock.prm

>  <Rbt.Receptor>
docking.prm

>  <SCORE>
-12.9222

>  <SCORE.INTER>
-11.4086

>  <SCORE.INTER.CONST>
1

>  <SCORE.INTER.POLAR>
0

>  <SCORE.INTER.REPUL>
0.029234

>  <SCORE.INTER.ROT>
0

>  <SCORE.INTER.VDW>
-16.9548

>  <SCORE.INTER.norm>
-0.713039

>  <SCORE.INTRA>
0

>  <SCORE.INTRA.DIHEDRAL>
0

>  <SCORE.INTRA.DIHEDRAL.0>
0

>  <SCORE.INTRA.POLAR>
0

>  <SCORE.INTRA.POLAR.0>
0

>  <SCORE.INTRA.REPUL>
0

>  <SCORE.INTRA.REPUL.0>
0

>  <SCORE.INTRA.VDW>
0

>  <SCORE.INTRA.VDW.0>
0

>  <SCORE.INTRA.norm>
0

>  <SCORE.RESTR>
0

>  <SCORE.RESTR.CAVITY>
0

>  <SCORE.RESTR.norm>
0

>  <SCORE.SYSTEM>
-1.51363

>  <SCORE.SYSTEM.CONST>
0

>  <SCORE.SYSTEM.DIHEDRAL>
0.384299

>  <SCORE.SYSTEM.POLAR>
-0.502859

>  <SCORE.SYSTEM.VDW>
0.0039442

>  <SCORE.SYSTEM.norm>
-0.0946016

>  <SCORE.heavy>
16

>  <SCORE.norm>
-0.80764

>  <enum_code>
T

>  <enum_smi>
CC1=Nn2c(nc3c(c2=O)CCC3)C1C#N

>  <sha256>
39e1b0cb6462242f67993cb5678037f9b85a03408faf08abbd395fb60bce143b

>  <std_smi>
Cc1nn2c(O)c3c(nc2c1C#N)CCC3

>  <uuid>
745f615f-fd1e-405a-af51-7e2b827f77db

$$$$
745f615f-fd1e-405a-af51-7e2b827f77db
  rDOCK(R)          3D
libRbt.so/2013.1/901 2013/11/27
 16 18  0  0  0  0  0  0  0  0999 V2000
   -1.6198   25.7077    5.3215 C   0  0  0  0  0  0
   -1.5104   26.9811    4.5504 C   0  0  0  0  0  0
   -1.0794   27.0367    3.3243 N   0  0  0  0  0  0
   -1.1087   28.3708    2.9748 N   0  0  0  0  0  0
   -0.6889   28.8486    1.7432 C   0  0  0  0  0  0
   -0.2595   28.1983    0.7988 O   0  0  0  0  0  0
   -0.8050   30.3142    1.6750 C   0  0  0  0  0  0
   -1.2463   31.0086    2.7295 C   0  0  0  0  0  0
   -1.6292   30.4960    3.9398 N   0  0  0  0  0  0
   -1.5535   29.2045    3.9978 C   0  0  0  0  0  0
   -1.8817   28.3147    5.1454 C   0  0  0  0  0  0
   -3.2987   28.3687    5.4780 C   0  0  0  0  0  0
   -4.4225   28.3702    5.7683 N   0  0  0  0  0  0
   -1.2776   32.4722    2.4336 C   0  0  0  0  0  0
   -1.1030   32.5037    0.9091 C   0  0  0  0  0  0
   -0.4695   31.1653    0.5097 C   0  0  0  0  0  0
  1  2  1  0  0  0
  2  3  2  0  0  0
  3  4  1  0  0  0
  4  5  1  0  0  0
  5  6  2  0  0  0
  5  7  1  0  0  0
  7  8  2  0  0  0
  8  9  1  0  0  0
  9 10  2  0  0  0
 10 11  1  0  0  0
 11 12  1  0  0  0
 12 13  3  0  0  0
  8 14  1  0  0  0
 14 15  1  0  0  0
 15 16  1  0  0  0
 11  2  1  0  0  0
 10  4  1  0  0  0
 16  7  1  0  0  0
M  END
>  <CHROM.0>
-59.88758699,69.28880760

>  <CHROM.1>
-1.48313281,29.19377084,3.17574847,-2.04326684,0.95142497,-0.34880918

>  <Name>
745f615f-fd1e-405a-af51-7e2b827f77db

>  <RI>
2.65393e+07

>  <Rbt.Current_Directory>
/data/work/jku/5V6S/work/40/8dba899c20c42488f2b1a17844994e

>  <Rbt.Executable>
rbdock ($Id: //depot/dev/client3/rdock/2013.1/src/exe/rbdock.cxx#4 $)

>  <Rbt.Library>
libRbt.so (2013.1, Build901 2013/11/27)

>  <Rbt.Parameter_File>
/rDock_2013.1_src/data/scripts/dock.prm

>  <Rbt.Receptor>
docking.prm

>  <SCORE>
-12.7644

>  <SCORE.INTER>
-11.2514

>  <SCORE.INTER.CONST>
1

>  <SCORE.INTER.POLAR>
0

>  <SCORE.INTER.REPUL>
0

>  <SCORE.INTER.ROT>
0

>  <SCORE.INTER.VDW>
-16.6514

>  <SCORE.INTER.norm>
-0.703213

>  <SCORE.INTRA>
0

>  <SCORE.INTRA.DIHEDRAL>
0

>  <SCORE.INTRA.DIHEDRAL.0>
0

>  <SCORE.INTRA.POLAR>
0

>  <SCORE.INTRA.POLAR.0>
0

>  <SCORE.INTRA.REPUL>
0

>  <SCORE.INTRA.REPUL.0>
0

>  <SCORE.INTRA.VDW>
0

>  <SCORE.INTRA.VDW.0>
0

>  <SCORE.INTRA.norm>
0

>  <SCORE.RESTR>
0

>  <SCORE.RESTR.CAVITY>
0

>  <SCORE.RESTR.norm>
0

>  <SCORE.SYSTEM>
-1.51299

>  <SCORE.SYSTEM.CONST>
0

>  <SCORE.SYSTEM.DIHEDRAL>
0.425088

>  <SCORE.SYSTEM.POLAR>
-0.503129

>  <SCORE.SYSTEM.VDW>
-0.0148982

>  <SCORE.SYSTEM.norm>
-0.094562

>  <SCORE.heavy>
16

>  <SCORE.norm>
-0.797775

>  <enum_code>
T

>  <enum_smi>
CC1=Nn2c(nc3c(c2=O)CCC3)C1C#N

>  <sha256>
39e1b0cb6462242f67993cb5678037f9b85a03408faf08abbd395fb60bce143b

>  <std_smi>
Cc1nn2c(O)c3c(nc2c1C#N)CCC3

>  <uuid>
745f615f-fd1e-405a-af51-7e2b827f77db

$$$$
745f615f-fd1e-405a-af51-7e2b827f77db
  rDOCK(R)          3D
libRbt.so/2013.1/901 2013/11/27
 16 18  0  0  0  0  0  0  0  0999 V2000
   -1.8924   25.7943    5.2877 C   0  0  0  0  0  0
   -1.6985   27.0632    4.5259 C   0  0  0  0  0  0
   -1.2391   27.1008    3.3094 N   0  0  0  0  0  0
   -1.1895   28.4359    2.9666 N   0  0  0  0  0  0
   -0.7185   28.8957    1.7466 C   0  0  0  0  0  0
   -0.3045   28.2272    0.8080 O   0  0  0  0  0  0
   -0.7545   30.3657    1.6838 C   0  0  0  0  0  0
   -1.1804   31.0783    2.7324 C   0  0  0  0  0  0
   -1.6159   30.5819    3.9317 N   0  0  0  0  0  0
   -1.6107   29.2880    3.9843 C   0  0  0  0  0  0
   -2.0105   28.4123    5.1200 C   0  0  0  0  0  0
   -3.4294   28.5408    5.4230 C   0  0  0  0  0  0
   -4.5574   28.6014    5.6895 N   0  0  0  0  0  0
   -1.1270   32.5427    2.4437 C   0  0  0  0  0  0
   -0.9184   32.5712    0.9234 C   0  0  0  0  0  0
   -0.3491   31.2024    0.5304 C   0  0  0  0  0  0
  1  2  1  0  0  0
  2  3  2  0  0  0
  3  4  1  0  0  0
  4  5  1  0  0  0
  5  6  2  0  0  0
  5  7  1  0  0  0
  7  8  2  0  0  0
  8  9  1  0  0  0
  9 10  2  0  0  0
 10 11  1  0  0  0
 11 12  1  0  0  0
 12 13  3  0  0  0
  8 14  1  0  0  0
 14 15  1  0  0  0
 15 16  1  0  0  0
 11  2  1  0  0  0
 10  4  1  0  0  0
 16  7  1  0  0  0
M  END
>  <CHROM.0>
-59.88758699,68.87586051

>  <CHROM.1>
-1.52352517,29.27695106,3.16390057,-2.14209778,0.94734732,-0.26367224

>  <Name>
745f615f-fd1e-405a-af51-7e2b827f77db

>  <RI>
2.65393e+07

>  <Rbt.Current_Directory>
/data/work/jku/5V6S/work/40/8dba899c20c42488f2b1a17844994e

>  <Rbt.Executable>
rbdock ($Id: //depot/dev/client3/rdock/2013.1/src/exe/rbdock.cxx#4 $)

>  <Rbt.Library>
libRbt.so (2013.1, Build901 2013/11/27)

>  <Rbt.Parameter_File>
/rDock_2013.1_src/data/scripts/dock.prm

>  <Rbt.Receptor>
docking.prm

>  <SCORE>
-12.8022

>  <SCORE.INTER>
-11.2885

>  <SCORE.INTER.CONST>
1

>  <SCORE.INTER.POLAR>
0

>  <SCORE.INTER.REPUL>
0

>  <SCORE.INTER.ROT>
0

>  <SCORE.INTER.VDW>
-16.6885

>  <SCORE.INTER.norm>
-0.705533

>  <SCORE.INTRA>
0

>  <SCORE.INTRA.DIHEDRAL>
0

>  <SCORE.INTRA.DIHEDRAL.0>
0

>  <SCORE.INTRA.POLAR>
0

>  <SCORE.INTRA.POLAR.0>
0

>  <SCORE.INTRA.REPUL>
0

>  <SCORE.INTRA.REPUL.0>
0

>  <SCORE.INTRA.VDW>
0

>  <SCORE.INTRA.VDW.0>
0

>  <SCORE.INTRA.norm>
0

>  <SCORE.RESTR>
0

>  <SCORE.RESTR.CAVITY>
0

>  <SCORE.RESTR.norm>
0

>  <SCORE.SYSTEM>
-1.51366

>  <SCORE.SYSTEM.CONST>
0

>  <SCORE.SYSTEM.DIHEDRAL>
0.389452

>  <SCORE.SYSTEM.POLAR>
-0.502904

>  <SCORE.SYSTEM.VDW>
0.00148345

>  <SCORE.SYSTEM.norm>
-0.094604

>  <SCORE.heavy>
16

>  <SCORE.norm>
-0.800137

>  <enum_code>
T

>  <enum_smi>
CC1=Nn2c(nc3c(c2=O)CCC3)C1C#N

>  <sha256>
39e1b0cb6462242f67993cb5678037f9b85a03408faf08abbd395fb60bce143b

>  <std_smi>
Cc1nn2c(O)c3c(nc2c1C#N)CCC3

>  <uuid>
745f615f-fd1e-405a-af51-7e2b827f77db

$$$$
745f615f-fd1e-405a-af51-7e2b827f77db
  rDOCK(R)          3D
libRbt.so/2013.1/901 2013/11/27
 16 18  0  0  0  0  0  0  0  0999 V2000
   -1.4903   31.1878    1.0437 C   0  0  0  0  0  0
   -1.3733   30.0227    1.9694 C   0  0  0  0  0  0
   -1.7814   30.0500    3.2042 N   0  0  0  0  0  0
   -1.4860   28.8079    3.7262 N   0  0  0  0  0  0
   -1.7393   28.4505    5.0414 C   0  0  0  0  0  0
   -2.2578   29.1363    5.9131 O   0  0  0  0  0  0
   -1.2852   27.0775    5.3150 C   0  0  0  0  0  0
   -0.6919   26.3566    4.3573 C   0  0  0  0  0  0
   -0.4392   26.7593    3.0734 N   0  0  0  0  0  0
   -0.8593   27.9575    2.8187 C   0  0  0  0  0  0
   -0.7540   28.7170    1.5426 C   0  0  0  0  0  0
   -1.5258   28.0888    0.4791 C   0  0  0  0  0  0
   -2.1384   27.6300   -0.3935 N   0  0  0  0  0  0
   -0.3151   25.0019    4.8605 C   0  0  0  0  0  0
   -1.0901   24.9145    6.1825 C   0  0  0  0  0  0
   -1.4111   26.3544    6.6018 C   0  0  0  0  0  0
  1  2  1  0  0  0
  2  3  2  0  0  0
  3  4  1  0  0  0
  4  5  1  0  0  0
  5  6  2  0  0  0
  5  7  1  0  0  0
  7  8  2  0  0  0
  8  9  1  0  0  0
  9 10  2  0  0  0
 10 11  1  0  0  0
 11 12  1  0  0  0
 12 13  3  0  0  0
  8 14  1  0  0  0
 14 15  1  0  0  0
 15 16  1  0  0  0
 11  2  1  0  0  0
 10  4  1  0  0  0
 16  7  1  0  0  0
M  END
>  <CHROM.0>
-59.88758699,69.18202723

>  <CHROM.1>
-1.30470009,27.92502266,3.51254865,1.90146484,1.33876206,-1.26992335

>  <Name>
745f615f-fd1e-405a-af51-7e2b827f77db

>  <RI>
2.65393e+07

>  <Rbt.Current_Directory>
/data/work/jku/5V6S/work/40/8dba899c20c42488f2b1a17844994e

>  <Rbt.Executable>
rbdock ($Id: //depot/dev/client3/rdock/2013.1/src/exe/rbdock.cxx#4 $)

>  <Rbt.Library>
libRbt.so (2013.1, Build901 2013/11/27)

>  <Rbt.Parameter_File>
/rDock_2013.1_src/data/scripts/dock.prm

>  <Rbt.Receptor>
docking.prm

>  <SCORE>
-13.1951

>  <SCORE.INTER>
-11.6818

>  <SCORE.INTER.CONST>
1

>  <SCORE.INTER.POLAR>
0

>  <SCORE.INTER.REPUL>
0

>  <SCORE.INTER.ROT>
0

>  <SCORE.INTER.VDW>
-17.0818

>  <SCORE.INTER.norm>
-0.730114

>  <SCORE.INTRA>
0

>  <SCORE.INTRA.DIHEDRAL>
0

>  <SCORE.INTRA.DIHEDRAL.0>
0

>  <SCORE.INTRA.POLAR>
0

>  <SCORE.INTRA.POLAR.0>
0

>  <SCORE.INTRA.REPUL>
0

>  <SCORE.INTRA.REPUL.0>
0

>  <SCORE.INTRA.VDW>
0

>  <SCORE.INTRA.VDW.0>
0

>  <SCORE.INTRA.norm>
0

>  <SCORE.RESTR>
0

>  <SCORE.RESTR.CAVITY>
0

>  <SCORE.RESTR.norm>
0

>  <SCORE.SYSTEM>
-1.51332

>  <SCORE.SYSTEM.CONST>
0

>  <SCORE.SYSTEM.DIHEDRAL>
0.41573

>  <SCORE.SYSTEM.POLAR>
-0.503084

>  <SCORE.SYSTEM.VDW>
-0.0106994

>  <SCORE.SYSTEM.norm>
-0.0945824

>  <SCORE.heavy>
16

>  <SCORE.norm>
-0.824697

>  <enum_code>
T

>  <enum_smi>
CC1=Nn2c(nc3c(c2=O)CCC3)C1C#N

>  <sha256>
39e1b0cb6462242f67993cb5678037f9b85a03408faf08abbd395fb60bce143b

>  <std_smi>
Cc1nn2c(O)c3c(nc2c1C#N)CCC3

>  <uuid>
745f615f-fd1e-405a-af51-7e2b827f77db

$$$$
af64f74c-500b-4461-b6ab-ce0065378c62
  rDOCK(R)          3D
libRbt.so/2013.1/901 2013/11/27
 17 19  0  0  0  0  0  0  0  0999 V2000
   -0.8579   24.7837    6.4289 C   0  0  0  0  0  0
   -2.2528   25.0898    5.9939 C   0  0  0  0  0  0
   -2.7821   26.3599    6.2124 N   0  0  0  0  0  0
   -4.0225   26.3654    5.5846 N   0  0  0  0  0  0
   -4.8281   27.4749    5.4484 C   0  0  0  0  0  0
   -4.5662   28.6168    5.8020 O   0  0  0  0  0  0
   -6.0796   27.1158    4.7666 C   0  0  0  0  0  0
   -6.2733   25.8603    4.3422 C   0  0  0  0  0  0
   -5.4003   24.8082    4.4611 N   0  0  0  0  0  0
   -4.3058   25.1007    5.0810 C   0  0  0  0  0  0
   -3.1245   24.2639    5.3804 C   0  0  0  0  0  0
   -2.9576   22.9225    4.9974 C   0  0  0  0  0  0
   -2.7752   21.8166    4.6956 N   0  0  0  0  0  0
   -7.6026   25.7211    3.6755 C   0  0  0  0  0  0
   -8.3110   27.0227    4.0772 C   0  0  0  0  0  0
   -7.2138   28.0198    4.4705 C   0  0  0  0  0  0
   -2.1776   27.1424    5.9538 H   0  0  0  0  0  0
  1  2  1  0  0  0
  2  3  1  0  0  0
  3  4  1  0  0  0
  4  5  1  0  0  0
  5  6  2  0  0  0
  5  7  1  0  0  0
  7  8  2  0  0  0
  8  9  1  0  0  0
  9 10  2  0  0  0
 10 11  1  0  0  0
 11 12  1  0  0  0
 12 13  3  0  0  0
  8 14  1  0  0  0
 14 15  1  0  0  0
 15 16  1  0  0  0
 11  2  2  0  0  0
 10  4  1  0  0  0
 16  7  1  0  0  0
  3 17  1  0  0  0
M  END
>  <CHROM.0>
-59.88758699,68.75375961

>  <CHROM.1>
-4.57723477,25.75845606,5.10182866,-0.49002614,-0.39861876,0.27394970

>  <Name>
af64f74c-500b-4461-b6ab-ce0065378c62

>  <RI>
2.1493e+07

>  <Rbt.Current_Directory>
/data/work/jku/5V6S/work/40/8dba899c20c42488f2b1a17844994e

>  <Rbt.Executable>
rbdock ($Id: //depot/dev/client3/rdock/2013.1/src/exe/rbdock.cxx#4 $)

>  <Rbt.Library>
libRbt.so (2013.1, Build901 2013/11/27)

>  <Rbt.Parameter_File>
/rDock_2013.1_src/data/scripts/dock.prm

>  <Rbt.Receptor>
docking.prm

>  <SCORE>
-12.6896

>  <SCORE.INTER>
-11.1761

>  <SCORE.INTER.CONST>
1

>  <SCORE.INTER.POLAR>
0

>  <SCORE.INTER.REPUL>
0

>  <SCORE.INTER.ROT>
0

>  <SCORE.INTER.VDW>
-16.5761

>  <SCORE.INTER.norm>
-0.698506

>  <SCORE.INTRA>
0

>  <SCORE.INTRA.DIHEDRAL>
0

>  <SCORE.INTRA.DIHEDRAL.0>
0

>  <SCORE.INTRA.POLAR>
0

>  <SCORE.INTRA.POLAR.0>
0

>  <SCORE.INTRA.REPUL>
0

>  <SCORE.INTRA.REPUL.0>
0

>  <SCORE.INTRA.VDW>
0

>  <SCORE.INTRA.VDW.0>
0

>  <SCORE.INTRA.norm>
0

>  <SCORE.RESTR>
0

>  <SCORE.RESTR.CAVITY>
0

>  <SCORE.RESTR.norm>
0

>  <SCORE.SYSTEM>
-1.51355

>  <SCORE.SYSTEM.CONST>
0

>  <SCORE.SYSTEM.DIHEDRAL>
0.379203

>  <SCORE.SYSTEM.POLAR>
-0.502811

>  <SCORE.SYSTEM.VDW>
0.00640187

>  <SCORE.SYSTEM.norm>
-0.0945971

>  <SCORE.heavy>
16

>  <SCORE.norm>
-0.793103

>  <enum_code>
T

>  <enum_smi>
Cc1[nH]n2c(=O)c3c(nc2c1C#N)CCC3

>  <sha256>
39e1b0cb6462242f67993cb5678037f9b85a03408faf08abbd395fb60bce143b

>  <std_smi>
Cc1nn2c(O)c3c(nc2c1C#N)CCC3

>  <uuid>
af64f74c-500b-4461-b6ab-ce0065378c62

$$$$
af64f74c-500b-4461-b6ab-ce0065378c62
  rDOCK(R)          3D
libRbt.so/2013.1/901 2013/11/27
 17 19  0  0  0  0  0  0  0  0999 V2000
   -0.0402   32.5150    0.3789 C   0  0  0  0  0  0
   -0.9471   31.6647    1.2054 C   0  0  0  0  0  0
   -1.5917   30.5744    0.6251 N   0  0  0  0  0  0
   -2.2410   29.9213    1.6666 N   0  0  0  0  0  0
   -2.8953   28.7144    1.5492 C   0  0  0  0  0  0
   -2.9645   28.0143    0.5478 O   0  0  0  0  0  0
   -3.4972   28.3335    2.8347 C   0  0  0  0  0  0
   -3.3239   29.1118    3.9108 C   0  0  0  0  0  0
   -2.6086   30.2813    3.9732 N   0  0  0  0  0  0
   -2.0943   30.6438    2.8455 C   0  0  0  0  0  0
   -1.2467   31.8082    2.5124 C   0  0  0  0  0  0
   -0.7975   32.7772    3.4251 C   0  0  0  0  0  0
   -0.3988   33.5952    4.1456 N   0  0  0  0  0  0
   -4.0132   28.5348    5.1037 C   0  0  0  0  0  0
   -4.9114   27.4588    4.4773 C   0  0  0  0  0  0
   -4.3131   27.1281    3.1042 C   0  0  0  0  0  0
   -1.0044   29.9669    0.0502 H   0  0  0  0  0  0
  1  2  1  0  0  0
  2  3  1  0  0  0
  3  4  1  0  0  0
  4  5  1  0  0  0
  5  6  2  0  0  0
  5  7  1  0  0  0
  7  8  2  0  0  0
  8  9  1  0  0  0
  9 10  2  0  0  0
 10 11  1  0  0  0
 11 12  1  0  0  0
 12 13  3  0  0  0
  8 14  1  0  0  0
 14 15  1  0  0  0
 15 16  1  0  0  0
 11  2  2  0  0  0
 10  4  1  0  0  0
 16  7  1  0  0  0
  3 17  1  0  0  0
M  END
>  <CHROM.0>
-59.88758699,68.99258036

>  <CHROM.1>
-2.37282855,30.03475343,2.60405181,-0.10128544,-0.94404970,-2.00044879

>  <Name>
af64f74c-500b-4461-b6ab-ce0065378c62

>  <RI>
2.1493e+07

>  <Rbt.Current_Directory>
/data/work/jku/5V6S/work/40/8dba899c20c42488f2b1a17844994e

>  <Rbt.Executable>
rbdock ($Id: //depot/dev/client3/rdock/2013.1/src/exe/rbdock.cxx#4 $)

>  <Rbt.Library>
libRbt.so (2013.1, Build901 2013/11/27)

>  <Rbt.Parameter_File>
/rDock_2013.1_src/data/scripts/dock.prm

>  <Rbt.Receptor>
docking.prm

>  <SCORE>
-12.9892

>  <SCORE.INTER>
-11.4756

>  <SCORE.INTER.CONST>
1

>  <SCORE.INTER.POLAR>
-0.920811

>  <SCORE.INTER.REPUL>
0

>  <SCORE.INTER.ROT>
0

>  <SCORE.INTER.VDW>
-13.7448

>  <SCORE.INTER.norm>
-0.717224

>  <SCORE.INTRA>
0

>  <SCORE.INTRA.DIHEDRAL>
0

>  <SCORE.INTRA.DIHEDRAL.0>
0

>  <SCORE.INTRA.POLAR>
0

>  <SCORE.INTRA.POLAR.0>
0

>  <SCORE.INTRA.REPUL>
0

>  <SCORE.INTRA.REPUL.0>
0

>  <SCORE.INTRA.VDW>
0

>  <SCORE.INTRA.VDW.0>
0

>  <SCORE.INTRA.norm>
0

>  <SCORE.RESTR>
0

>  <SCORE.RESTR.CAVITY>
0

>  <SCORE.RESTR.norm>
0

>  <SCORE.SYSTEM>
-1.51364

>  <SCORE.SYSTEM.CONST>
0

>  <SCORE.SYSTEM.DIHEDRAL>
0.399373

>  <SCORE.SYSTEM.POLAR>
-0.502981

>  <SCORE.SYSTEM.VDW>
-0.00318624

>  <SCORE.SYSTEM.norm>
-0.0946023

>  <SCORE.heavy>
16

>  <SCORE.norm>
-0.811826

>  <enum_code>
T

>  <enum_smi>
Cc1[nH]n2c(=O)c3c(nc2c1C#N)CCC3

>  <sha256>
39e1b0cb6462242f67993cb5678037f9b85a03408faf08abbd395fb60bce143b

>  <std_smi>
Cc1nn2c(O)c3c(nc2c1C#N)CCC3

>  <uuid>
af64f74c-500b-4461-b6ab-ce0065378c62

$$$$
af64f74c-500b-4461-b6ab-ce0065378c62
  rDOCK(R)          3D
libRbt.so/2013.1/901 2013/11/27
 17 19  0  0  0  0  0  0  0  0999 V2000
   -8.0131   27.0224    4.1108 C   0  0  0  0  0  0
   -6.6500   26.5918    4.5411 C   0  0  0  0  0  0
   -6.1709   25.3381    4.1674 N   0  0  0  0  0  0
   -4.8501   25.2944    4.5991 N   0  0  0  0  0  0
   -3.9658   24.2760    4.3173 C   0  0  0  0  0  0
   -4.1784   23.2960    3.6159 O   0  0  0  0  0  0
   -2.6689   24.5348    4.9584 C   0  0  0  0  0  0
   -2.4809   25.6629    5.6555 C   0  0  0  0  0  0
   -3.3926   26.6696    5.8520 N   0  0  0  0  0  0
   -4.5463   26.4460    5.3166 C   0  0  0  0  0  0
   -5.7622   27.2861    5.2816 C   0  0  0  0  0  0
   -5.8813   28.5712    5.8366 C   0  0  0  0  0  0
   -6.0215   29.6371    6.2742 N   0  0  0  0  0  0
   -1.0963   25.7220    6.2123 C   0  0  0  0  0  0
   -0.6003   24.2823    6.0167 C   0  0  0  0  0  0
   -1.4772   23.6572    4.9245 C   0  0  0  0  0  0
   -6.2994   25.0896    3.1844 H   0  0  0  0  0  0
  1  2  1  0  0  0
  2  3  1  0  0  0
  3  4  1  0  0  0
  4  5  1  0  0  0
  5  6  2  0  0  0
  5  7  1  0  0  0
  7  8  2  0  0  0
  8  9  1  0  0  0
  9 10  2  0  0  0
 10 11  1  0  0  0
 11 12  1  0  0  0
 12 13  3  0  0  0
  8 14  1  0  0  0
 14 15  1  0  0  0
 15 16  1  0  0  0
 11  2  2  0  0  0
 10  4  1  0  0  0
 16  7  1  0  0  0
  3 17  1  0  0  0
M  END
>  <CHROM.0>
-59.88758699,69.15448368

>  <CHROM.1>
-4.23963257,25.85038658,5.07589212,2.65220930,-0.35053163,0.49221446

>  <Name>
af64f74c-500b-4461-b6ab-ce0065378c62

>  <RI>
2.1493e+07

>  <Rbt.Current_Directory>
/data/work/jku/5V6S/work/40/8dba899c20c42488f2b1a17844994e

>  <Rbt.Executable>
rbdock ($Id: //depot/dev/client3/rdock/2013.1/src/exe/rbdock.cxx#4 $)

>  <Rbt.Library>
libRbt.so (2013.1, Build901 2013/11/27)

>  <Rbt.Parameter_File>
/rDock_2013.1_src/data/scripts/dock.prm

>  <Rbt.Receptor>
docking.prm

>  <SCORE>
-12.8696

>  <SCORE.INTER>
-11.3562

>  <SCORE.INTER.CONST>
1

>  <SCORE.INTER.POLAR>
0

>  <SCORE.INTER.REPUL>
0

>  <SCORE.INTER.ROT>
0

>  <SCORE.INTER.VDW>
-16.7562

>  <SCORE.INTER.norm>
-0.709765

>  <SCORE.INTRA>
0

>  <SCORE.INTRA.DIHEDRAL>
0

>  <SCORE.INTRA.DIHEDRAL.0>
0

>  <SCORE.INTRA.POLAR>
0

>  <SCORE.INTRA.POLAR.0>
0

>  <SCORE.INTRA.REPUL>
0

>  <SCORE.INTRA.REPUL.0>
0

>  <SCORE.INTRA.VDW>
0

>  <SCORE.INTRA.VDW.0>
0

>  <SCORE.INTRA.norm>
0

>  <SCORE.RESTR>
0

>  <SCORE.RESTR.CAVITY>
0

>  <SCORE.RESTR.norm>
0

>  <SCORE.SYSTEM>
-1.51339

>  <SCORE.SYSTEM.CONST>
0

>  <SCORE.SYSTEM.DIHEDRAL>
0.413333

>  <SCORE.SYSTEM.POLAR>
-0.503071

>  <SCORE.SYSTEM.VDW>
-0.00961213

>  <SCORE.SYSTEM.norm>
-0.0945866

>  <SCORE.heavy>
16

>  <SCORE.norm>
-0.804352

>  <enum_code>
T

>  <enum_smi>
Cc1[nH]n2c(=O)c3c(nc2c1C#N)CCC3

>  <sha256>
39e1b0cb6462242f67993cb5678037f9b85a03408faf08abbd395fb60bce143b

>  <std_smi>
Cc1nn2c(O)c3c(nc2c1C#N)CCC3

>  <uuid>
af64f74c-500b-4461-b6ab-ce0065378c62

$$$$
af64f74c-500b-4461-b6ab-ce0065378c62
  rDOCK(R)          3D
libRbt.so/2013.1/901 2013/11/27
 17 19  0  0  0  0  0  0  0  0999 V2000
   -0.5531   24.7091    6.4711 C   0  0  0  0  0  0
   -1.9560   24.9018    5.9985 C   0  0  0  0  0  0
   -2.6075   26.1092    6.2409 N   0  0  0  0  0  0
   -3.8227   26.0240    5.5710 N   0  0  0  0  0  0
   -4.7230   27.0593    5.4442 C   0  0  0  0  0  0
   -4.5794   28.2066    5.8448 O   0  0  0  0  0  0
   -5.9137   26.6123    4.7076 C   0  0  0  0  0  0
   -5.9766   25.3607    4.2350 C   0  0  0  0  0  0
   -5.0139   24.3893    4.3487 N   0  0  0  0  0  0
   -3.9714   24.7580    5.0157 C   0  0  0  0  0  0
   -2.7276   24.0225    5.3276 C   0  0  0  0  0  0
   -2.4250   22.7170    4.9059 C   0  0  0  0  0  0
   -2.1314   21.6442    4.5737 N   0  0  0  0  0  0
   -7.2657   25.1249    3.5182 C   0  0  0  0  0  0
   -8.1040   26.3404    3.9385 C   0  0  0  0  0  0
   -7.1170   27.4188    4.4029 C   0  0  0  0  0  0
   -2.0703   26.9528    6.0299 H   0  0  0  0  0  0
  1  2  1  0  0  0
  2  3  1  0  0  0
  3  4  1  0  0  0
  4  5  1  0  0  0
  5  6  2  0  0  0
  5  7  1  0  0  0
  7  8  2  0  0  0
  8  9  1  0  0  0
  9 10  2  0  0  0
 10 11  1  0  0  0
 11 12  1  0  0  0
 12 13  3  0  0  0
  8 14  1  0  0  0
 14 15  1  0  0  0
 15 16  1  0  0  0
 11  2  2  0  0  0
 10  4  1  0  0  0
 16  7  1  0  0  0
  3 17  1  0  0  0
M  END
>  <CHROM.0>
-59.88758699,68.48685089

>  <CHROM.1>
-4.30320179,25.38691071,5.04914701,-0.38353463,-0.40180099,0.35065048

>  <Name>
af64f74c-500b-4461-b6ab-ce0065378c62

>  <RI>
2.1493e+07

>  <Rbt.Current_Directory>
/data/work/jku/5V6S/work/40/8dba899c20c42488f2b1a17844994e

>  <Rbt.Executable>
rbdock ($Id: //depot/dev/client3/rdock/2013.1/src/exe/rbdock.cxx#4 $)

>  <Rbt.Library>
libRbt.so (2013.1, Build901 2013/11/27)

>  <Rbt.Parameter_File>
/rDock_2013.1_src/data/scripts/dock.prm

>  <Rbt.Receptor>
docking.prm

>  <SCORE>
-12.7703

>  <SCORE.INTER>
-11.2575

>  <SCORE.INTER.CONST>
1

>  <SCORE.INTER.POLAR>
-0.0436823

>  <SCORE.INTER.REPUL>
0

>  <SCORE.INTER.ROT>
0

>  <SCORE.INTER.VDW>
-16.509

>  <SCORE.INTER.norm>
-0.703594

>  <SCORE.INTRA>
0

>  <SCORE.INTRA.DIHEDRAL>
0

>  <SCORE.INTRA.DIHEDRAL.0>
0

>  <SCORE.INTRA.POLAR>
0

>  <SCORE.INTRA.POLAR.0>
0

>  <SCORE.INTRA.REPUL>
0

>  <SCORE.INTRA.REPUL.0>
0

>  <SCORE.INTRA.VDW>
0

>  <SCORE.INTRA.VDW.0>
0

>  <SCORE.INTRA.norm>
0

>  <SCORE.RESTR>
0

>  <SCORE.RESTR.CAVITY>
0

>  <SCORE.RESTR.norm>
0

>  <SCORE.SYSTEM>
-1.51282

>  <SCORE.SYSTEM.CONST>
0

>  <SCORE.SYSTEM.DIHEDRAL>
0.357258

>  <SCORE.SYSTEM.POLAR>
-0.502565

>  <SCORE.SYSTEM.VDW>
0.0172733

>  <SCORE.SYSTEM.norm>
-0.0945512

>  <SCORE.heavy>
16

>  <SCORE.norm>
-0.798145

>  <enum_code>
T

>  <enum_smi>
Cc1[nH]n2c(=O)c3c(nc2c1C#N)CCC3

>  <sha256>
39e1b0cb6462242f67993cb5678037f9b85a03408faf08abbd395fb60bce143b

>  <std_smi>
Cc1nn2c(O)c3c(nc2c1C#N)CCC3

>  <uuid>
af64f74c-500b-4461-b6ab-ce0065378c62

$$$$
af64f74c-500b-4461-b6ab-ce0065378c62
  rDOCK(R)          3D
libRbt.so/2013.1/901 2013/11/27
 17 19  0  0  0  0  0  0  0  0999 V2000
   -0.5283   24.7372    6.4696 C   0  0  0  0  0  0
   -1.9342   24.9194    6.0019 C   0  0  0  0  0  0
   -2.5960   26.1195    6.2523 N   0  0  0  0  0  0
   -3.8123   26.0264    5.5853 N   0  0  0  0  0  0
   -4.7225   27.0540    5.4663 C   0  0  0  0  0  0
   -4.5883   28.2006    5.8724 O   0  0  0  0  0  0
   -5.9110   26.5998    4.7308 C   0  0  0  0  0  0
   -5.9638   25.3501    4.2519 C   0  0  0  0  0  0
   -4.9919   24.3871    4.3580 N   0  0  0  0  0  0
   -3.9509   24.7620    5.0239 C   0  0  0  0  0  0
   -2.6995   24.0364    5.3287 C   0  0  0  0  0  0
   -2.3861   22.7359    4.8994 C   0  0  0  0  0  0
   -2.0836   21.6676    4.5610 N   0  0  0  0  0  0
   -7.2526   25.1060    3.5375 C   0  0  0  0  0  0
   -8.1009   26.3117    3.9663 C   0  0  0  0  0  0
   -7.1226   27.3967    4.4335 C   0  0  0  0  0  0
   -2.0673   26.9690    6.0441 H   0  0  0  0  0  0
  1  2  1  0  0  0
  2  3  1  0  0  0
  3  4  1  0  0  0
  4  5  1  0  0  0
  5  6  2  0  0  0
  5  7  1  0  0  0
  7  8  2  0  0  0
  8  9  1  0  0  0
  9 10  2  0  0  0
 10 11  1  0  0  0
 11 12  1  0  0  0
 12 13  3  0  0  0
  8 14  1  0  0  0
 14 15  1  0  0  0
 15 16  1  0  0  0
 11  2  2  0  0  0
 10  4  1  0  0  0
 16  7  1  0  0  0
  3 17  1  0  0  0
M  END
>  <CHROM.0>
-59.88758699,68.83578095

>  <CHROM.1>
-4.28840307,25.38762210,5.06154957,-0.37521103,-0.39597941,0.35897235

>  <Name>
af64f74c-500b-4461-b6ab-ce0065378c62

>  <RI>
2.1493e+07

>  <Rbt.Current_Directory>
/data/work/jku/5V6S/work/40/8dba899c20c42488f2b1a17844994e

>  <Rbt.Executable>
rbdock ($Id: //depot/dev/client3/rdock/2013.1/src/exe/rbdock.cxx#4 $)

>  <Rbt.Library>
libRbt.so (2013.1, Build901 2013/11/27)

>  <Rbt.Parameter_File>
/rDock_2013.1_src/data/scripts/dock.prm

>  <Rbt.Receptor>
docking.prm

>  <SCORE>
-12.7373

>  <SCORE.INTER>
-11.2237

>  <SCORE.INTER.CONST>
1

>  <SCORE.INTER.POLAR>
-0.0491776

>  <SCORE.INTER.REPUL>
0

>  <SCORE.INTER.ROT>
0

>  <SCORE.INTER.VDW>
-16.4565

>  <SCORE.INTER.norm>
-0.701479

>  <SCORE.INTRA>
0

>  <SCORE.INTRA.DIHEDRAL>
0

>  <SCORE.INTRA.DIHEDRAL.0>
0

>  <SCORE.INTRA.POLAR>
0

>  <SCORE.INTRA.POLAR.0>
0

>  <SCORE.INTRA.REPUL>
0

>  <SCORE.INTRA.REPUL.0>
0

>  <SCORE.INTRA.VDW>
0

>  <SCORE.INTRA.VDW.0>
0

>  <SCORE.INTRA.norm>
0

>  <SCORE.RESTR>
0

>  <SCORE.RESTR.CAVITY>
0

>  <SCORE.RESTR.norm>
0

>  <SCORE.SYSTEM>
-1.51364

>  <SCORE.SYSTEM.CONST>
0

>  <SCORE.SYSTEM.DIHEDRAL>
0.386073

>  <SCORE.SYSTEM.POLAR>
-0.502875

>  <SCORE.SYSTEM.VDW>
0.00309414

>  <SCORE.SYSTEM.norm>
-0.0946027

>  <SCORE.heavy>
16

>  <SCORE.norm>
-0.796082

>  <enum_code>
T

>  <enum_smi>
Cc1[nH]n2c(=O)c3c(nc2c1C#N)CCC3

>  <sha256>
39e1b0cb6462242f67993cb5678037f9b85a03408faf08abbd395fb60bce143b

>  <std_smi>
Cc1nn2c(O)c3c(nc2c1C#N)CCC3

>  <uuid>
af64f74c-500b-4461-b6ab-ce0065378c62

$$$$
40b82413-d70d-48eb-815e-a208d3bb9c02
  rDOCK(R)          3D
libRbt.so/2013.1/901 2013/11/27
 17 19  0  0  0  0  0  0  0  0999 V2000
   -1.0259   20.3966    1.8407 C   0  0  0  0  0  0
   -1.3956   21.6032    2.6251 C   0  0  0  0  0  0
   -0.4419   22.4448    3.0482 N   0  0  0  0  0  0
   -1.1199   23.4166    3.7188 N   0  0  0  0  0  0
   -0.4857   24.5182    4.3360 C   0  0  0  0  0  0
    0.7266   24.6789    4.3124 O   0  0  0  0  0  0
   -1.4397   25.4296    4.9975 C   0  0  0  0  0  0
   -2.7530   25.1709    4.9702 C   0  0  0  0  0  0
   -3.3048   24.0777    4.3514 N   0  0  0  0  0  0
   -2.4943   23.1879    3.7179 C   0  0  0  0  0  0
   -2.6897   22.0236    3.0175 C   0  0  0  0  0  0
   -3.9357   21.3901    2.7530 C   0  0  0  0  0  0
   -4.9563   20.8802    2.5419 N   0  0  0  0  0  0
   -3.5265   26.2185    5.6986 C   0  0  0  0  0  0
   -2.4803   27.3288    5.8795 C   0  0  0  0  0  0
   -1.1014   26.6709    5.7303 C   0  0  0  0  0  0
   -4.3194   23.9796    4.3948 H   0  0  0  0  0  0
  1  2  1  0  0  0
  2  3  2  0  0  0
  3  4  1  0  0  0
  4  5  1  0  0  0
  5  6  2  0  0  0
  5  7  1  0  0  0
  7  8  2  0  0  0
  8  9  1  0  0  0
  9 10  1  0  0  0
 10 11  2  0  0  0
 11 12  1  0  0  0
 12 13  3  0  0  0
  8 14  1  0  0  0
 14 15  1  0  0  0
 15 16  1  0  0  0
 11  2  1  0  0  0
 10  4  1  0  0  0
 16  7  1  0  0  0
  9 17  1  0  0  0
M  END
>  <CHROM.0>
-59.88758699,69.69782476

>  <CHROM.1>
-1.99759070,23.73488627,3.97950876,-1.68946756,0.07884218,0.53814810

>  <Name>
40b82413-d70d-48eb-815e-a208d3bb9c02

>  <RI>
3.03854e+07

>  <Rbt.Current_Directory>
/data/work/jku/5V6S/work/40/8dba899c20c42488f2b1a17844994e

>  <Rbt.Executable>
rbdock ($Id: //depot/dev/client3/rdock/2013.1/src/exe/rbdock.cxx#4 $)

>  <Rbt.Library>
libRbt.so (2013.1, Build901 2013/11/27)

>  <Rbt.Parameter_File>
/rDock_2013.1_src/data/scripts/dock.prm

>  <Rbt.Receptor>
docking.prm

>  <SCORE>
-10.3399

>  <SCORE.INTER>
-8.82929

>  <SCORE.INTER.CONST>
1

>  <SCORE.INTER.POLAR>
0

>  <SCORE.INTER.REPUL>
0

>  <SCORE.INTER.ROT>
0

>  <SCORE.INTER.VDW>
-14.2293

>  <SCORE.INTER.norm>
-0.551831

>  <SCORE.INTRA>
0

>  <SCORE.INTRA.DIHEDRAL>
0

>  <SCORE.INTRA.DIHEDRAL.0>
0

>  <SCORE.INTRA.POLAR>
0

>  <SCORE.INTRA.POLAR.0>
0

>  <SCORE.INTRA.REPUL>
0

>  <SCORE.INTRA.REPUL.0>
0

>  <SCORE.INTRA.VDW>
0

>  <SCORE.INTRA.VDW.0>
0

>  <SCORE.INTRA.norm>
0

>  <SCORE.RESTR>
0.000176395

>  <SCORE.RESTR.CAVITY>
0.000176395

>  <SCORE.RESTR.norm>
1.10247e-05

>  <SCORE.SYSTEM>
-1.51076

>  <SCORE.SYSTEM.CONST>
0

>  <SCORE.SYSTEM.DIHEDRAL>
0.461852

>  <SCORE.SYSTEM.POLAR>
-0.503217

>  <SCORE.SYSTEM.VDW>
-0.0307445

>  <SCORE.SYSTEM.norm>
-0.0944222

>  <SCORE.heavy>
16

>  <SCORE.norm>
-0.646242

>  <enum_code>
T

>  <enum_smi>
Cc1nn2c(=O)c3c([nH]c2c1C#N)CCC3

>  <sha256>
39e1b0cb6462242f67993cb5678037f9b85a03408faf08abbd395fb60bce143b

>  <std_smi>
Cc1nn2c(O)c3c(nc2c1C#N)CCC3

>  <uuid>
40b82413-d70d-48eb-815e-a208d3bb9c02

$$$$
40b82413-d70d-48eb-815e-a208d3bb9c02
  rDOCK(R)          3D
libRbt.so/2013.1/901 2013/11/27
 17 19  0  0  0  0  0  0  0  0999 V2000
    0.1546   32.5108    0.0655 C   0  0  0  0  0  0
   -0.5266   31.6218    1.0420 C   0  0  0  0  0  0
   -0.1751   30.3313    1.1311 N   0  0  0  0  0  0
   -0.9832   29.8258    2.1033 N   0  0  0  0  0  0
   -0.9424   28.4762    2.5198 C   0  0  0  0  0  0
   -0.1732   27.6592    2.0332 O   0  0  0  0  0  0
   -1.9173   28.1780    3.5871 C   0  0  0  0  0  0
   -2.7202   29.1401    4.0586 C   0  0  0  0  0  0
   -2.7089   30.4357    3.6069 N   0  0  0  0  0  0
   -1.8395   30.7936    2.6241 C   0  0  0  0  0  0
   -1.5590   31.9570    1.9516 C   0  0  0  0  0  0
   -2.1837   33.2206    2.1426 C   0  0  0  0  0  0
   -2.6988   34.2476    2.3050 N   0  0  0  0  0  0
   -3.6212   28.6181    5.1273 C   0  0  0  0  0  0
   -2.9877   27.2564    5.4506 C   0  0  0  0  0  0
   -2.1273   26.8661    4.2407 C   0  0  0  0  0  0
   -3.3664   31.0858    4.0379 H   0  0  0  0  0  0
  1  2  1  0  0  0
  2  3  2  0  0  0
  3  4  1  0  0  0
  4  5  1  0  0  0
  5  6  2  0  0  0
  5  7  1  0  0  0
  7  8  2  0  0  0
  8  9  1  0  0  0
  9 10  1  0  0  0
 10 11  2  0  0  0
 11 12  1  0  0  0
 12 13  3  0  0  0
  8 14  1  0  0  0
 14 15  1  0  0  0
 15 16  1  0  0  0
 11  2  1  0  0  0
 10  4  1  0  0  0
 16  7  1  0  0  0
  9 17  1  0  0  0
M  END
>  <CHROM.0>
-59.88758699,68.49849069

>  <CHROM.1>
-1.67459049,30.03757230,2.74875977,-1.27393679,-0.76750020,2.79927331

>  <Name>
40b82413-d70d-48eb-815e-a208d3bb9c02

>  <RI>
3.03854e+07

>  <Rbt.Current_Directory>
/data/work/jku/5V6S/work/40/8dba899c20c42488f2b1a17844994e

>  <Rbt.Executable>
rbdock ($Id: //depot/dev/client3/rdock/2013.1/src/exe/rbdock.cxx#4 $)

>  <Rbt.Library>
libRbt.so (2013.1, Build901 2013/11/27)

>  <Rbt.Parameter_File>
/rDock_2013.1_src/data/scripts/dock.prm

>  <Rbt.Receptor>
docking.prm

>  <SCORE>
-12.7038

>  <SCORE.INTER>
-11.1909

>  <SCORE.INTER.CONST>
1

>  <SCORE.INTER.POLAR>
-0.340863

>  <SCORE.INTER.REPUL>
0.00937436

>  <SCORE.INTER.ROT>
0

>  <SCORE.INTER.VDW>
-15.4789

>  <SCORE.INTER.norm>
-0.699433

>  <SCORE.INTRA>
0

>  <SCORE.INTRA.DIHEDRAL>
0

>  <SCORE.INTRA.DIHEDRAL.0>
0

>  <SCORE.INTRA.POLAR>
0

>  <SCORE.INTRA.POLAR.0>
0

>  <SCORE.INTRA.REPUL>
0

>  <SCORE.INTRA.REPUL.0>
0

>  <SCORE.INTRA.VDW>
0

>  <SCORE.INTRA.VDW.0>
0

>  <SCORE.INTRA.norm>
0

>  <SCORE.RESTR>
0

>  <SCORE.RESTR.CAVITY>
0

>  <SCORE.RESTR.norm>
0

>  <SCORE.SYSTEM>
-1.51287

>  <SCORE.SYSTEM.CONST>
0

>  <SCORE.SYSTEM.DIHEDRAL>
0.358202

>  <SCORE.SYSTEM.POLAR>
-0.502577

>  <SCORE.SYSTEM.VDW>
0.0167957

>  <SCORE.SYSTEM.norm>
-0.0945541

>  <SCORE.heavy>
16

>  <SCORE.norm>
-0.793987

>  <enum_code>
T

>  <enum_smi>
Cc1nn2c(=O)c3c([nH]c2c1C#N)CCC3

>  <sha256>
39e1b0cb6462242f67993cb5678037f9b85a03408faf08abbd395fb60bce143b

>  <std_smi>
Cc1nn2c(O)c3c(nc2c1C#N)CCC3

>  <uuid>
40b82413-d70d-48eb-815e-a208d3bb9c02

$$$$
40b82413-d70d-48eb-815e-a208d3bb9c02
  rDOCK(R)          3D
libRbt.so/2013.1/901 2013/11/27
 17 19  0  0  0  0  0  0  0  0999 V2000
   -0.5324   24.7710    6.2977 C   0  0  0  0  0  0
   -1.9288   24.9622    5.8271 C   0  0  0  0  0  0
   -2.5331   26.1479    5.9877 N   0  0  0  0  0  0
   -3.7737   25.9714    5.4554 N   0  0  0  0  0  0
   -4.7524   26.9900    5.4181 C   0  0  0  0  0  0
   -4.5541   28.1112    5.8649 O   0  0  0  0  0  0
   -6.0131   26.5482    4.7905 C   0  0  0  0  0  0
   -6.1375   25.2978    4.3287 C   0  0  0  0  0  0
   -5.1438   24.3541    4.3979 N   0  0  0  0  0  0
   -3.9499   24.6805    4.9618 C   0  0  0  0  0  0
   -2.7710   24.0164    5.1931 C   0  0  0  0  0  0
   -2.4772   22.6652    4.8592 C   0  0  0  0  0  0
   -2.2463   21.5621    4.5833 N   0  0  0  0  0  0
   -7.4888   25.0704    3.7383 C   0  0  0  0  0  0
   -8.0379   26.5005    3.6219 C   0  0  0  0  0  0
   -7.2299   27.3692    4.5961 C   0  0  0  0  0  0
   -5.3493   23.4312    4.0150 H   0  0  0  0  0  0
  1  2  1  0  0  0
  2  3  2  0  0  0
  3  4  1  0  0  0
  4  5  1  0  0  0
  5  6  2  0  0  0
  5  7  1  0  0  0
  7  8  2  0  0  0
  8  9  1  0  0  0
  9 10  1  0  0  0
 10 11  2  0  0  0
 11 12  1  0  0  0
 12 13  3  0  0  0
  8 14  1  0  0  0
 14 15  1  0  0  0
 15 16  1  0  0  0
 11  2  1  0  0  0
 10  4  1  0  0  0
 16  7  1  0  0  0
  9 17  1  0  0  0
M  END
>  <CHROM.0>
-59.88758699,68.77161723

>  <CHROM.1>
-4.35976898,25.34743715,5.00071306,-0.39404434,-0.36550528,0.32242049

>  <Name>
40b82413-d70d-48eb-815e-a208d3bb9c02

>  <RI>
3.03854e+07

>  <Rbt.Current_Directory>
/data/work/jku/5V6S/work/40/8dba899c20c42488f2b1a17844994e

>  <Rbt.Executable>
rbdock ($Id: //depot/dev/client3/rdock/2013.1/src/exe/rbdock.cxx#4 $)

>  <Rbt.Library>
libRbt.so (2013.1, Build901 2013/11/27)

>  <Rbt.Parameter_File>
/rDock_2013.1_src/data/scripts/dock.prm

>  <Rbt.Receptor>
docking.prm

>  <SCORE>
-12.5397

>  <SCORE.INTER>
-11.0261

>  <SCORE.INTER.CONST>
1

>  <SCORE.INTER.POLAR>
-0.0292151

>  <SCORE.INTER.REPUL>
0

>  <SCORE.INTER.ROT>
0

>  <SCORE.INTER.VDW>
-16.3267

>  <SCORE.INTER.norm>
-0.68913

>  <SCORE.INTRA>
0

>  <SCORE.INTRA.DIHEDRAL>
0

>  <SCORE.INTRA.DIHEDRAL.0>
0

>  <SCORE.INTRA.POLAR>
0

>  <SCORE.INTRA.POLAR.0>
0

>  <SCORE.INTRA.REPUL>
0

>  <SCORE.INTRA.REPUL.0>
0

>  <SCORE.INTRA.VDW>
0

>  <SCORE.INTRA.VDW.0>
0

>  <SCORE.INTRA.norm>
0

>  <SCORE.RESTR>
0

>  <SCORE.RESTR.CAVITY>
0

>  <SCORE.RESTR.norm>
0

>  <SCORE.SYSTEM>
-1.51358

>  <SCORE.SYSTEM.CONST>
0

>  <SCORE.SYSTEM.DIHEDRAL>
0.380694

>  <SCORE.SYSTEM.POLAR>
-0.502825

>  <SCORE.SYSTEM.VDW>
0.00568039

>  <SCORE.SYSTEM.norm>
-0.0945986

>  <SCORE.heavy>
16

>  <SCORE.norm>
-0.783729

>  <enum_code>
T

>  <enum_smi>
Cc1nn2c(=O)c3c([nH]c2c1C#N)CCC3

>  <sha256>
39e1b0cb6462242f67993cb5678037f9b85a03408faf08abbd395fb60bce143b

>  <std_smi>
Cc1nn2c(O)c3c(nc2c1C#N)CCC3

>  <uuid>
40b82413-d70d-48eb-815e-a208d3bb9c02

$$$$
40b82413-d70d-48eb-815e-a208d3bb9c02
  rDOCK(R)          3D
libRbt.so/2013.1/901 2013/11/27
 17 19  0  0  0  0  0  0  0  0999 V2000
   -7.9205   27.1165    4.1751 C   0  0  0  0  0  0
   -6.5437   26.6737    4.5158 C   0  0  0  0  0  0
   -6.0940   25.4890    4.0788 N   0  0  0  0  0  0
   -4.8249   25.4073    4.5649 N   0  0  0  0  0  0
   -3.9774   24.3002    4.3351 C   0  0  0  0  0  0
   -4.3255   23.3287    3.6788 O   0  0  0  0  0  0
   -2.6530   24.4536    4.9684 C   0  0  0  0  0  0
   -2.3615   25.5561    5.6696 C   0  0  0  0  0  0
   -3.2350   26.5978    5.8556 N   0  0  0  0  0  0
   -4.4770   26.5355    5.3048 C   0  0  0  0  0  0
   -5.5728   27.3619    5.2835 C   0  0  0  0  0  0
   -5.6887   28.6356    5.9066 C   0  0  0  0  0  0
   -5.7746   29.6735    6.4180 N   0  0  0  0  0  0
   -0.9752   25.4983    6.2183 C   0  0  0  0  0  0
   -0.3673   24.3195    5.4430 C   0  0  0  0  0  0
   -1.5396   23.4788    4.9182 C   0  0  0  0  0  0
   -2.9066   27.3888    6.4100 H   0  0  0  0  0  0
  1  2  1  0  0  0
  2  3  2  0  0  0
  3  4  1  0  0  0
  4  5  1  0  0  0
  5  6  2  0  0  0
  5  7  1  0  0  0
  7  8  2  0  0  0
  8  9  1  0  0  0
  9 10  1  0  0  0
 10 11  2  0  0  0
 11 12  1  0  0  0
 12 13  3  0  0  0
  8 14  1  0  0  0
 14 15  1  0  0  0
 15 16  1  0  0  0
 11  2  1  0  0  0
 10  4  1  0  0  0
 16  7  1  0  0  0
  9 17  1  0  0  0
M  END
>  <CHROM.0>
-59.88758699,-62.43920616

>  <CHROM.1>
-4.13772725,25.86956328,5.06862460,2.61151458,-0.33569661,0.48417332

>  <Name>
40b82413-d70d-48eb-815e-a208d3bb9c02

>  <RI>
3.03854e+07

>  <Rbt.Current_Directory>
/data/work/jku/5V6S/work/40/8dba899c20c42488f2b1a17844994e

>  <Rbt.Executable>
rbdock ($Id: //depot/dev/client3/rdock/2013.1/src/exe/rbdock.cxx#4 $)

>  <Rbt.Library>
libRbt.so (2013.1, Build901 2013/11/27)

>  <Rbt.Parameter_File>
/rDock_2013.1_src/data/scripts/dock.prm

>  <Rbt.Receptor>
docking.prm

>  <SCORE>
-10.3595

>  <SCORE.INTER>
-11.3809

>  <SCORE.INTER.CONST>
1

>  <SCORE.INTER.POLAR>
0

>  <SCORE.INTER.REPUL>
0.00816197

>  <SCORE.INTER.ROT>
0

>  <SCORE.INTER.VDW>
-16.8217

>  <SCORE.INTER.norm>
-0.711305

>  <SCORE.INTRA>
0

>  <SCORE.INTRA.DIHEDRAL>
0

>  <SCORE.INTRA.DIHEDRAL.0>
0

>  <SCORE.INTRA.POLAR>
0

>  <SCORE.INTRA.POLAR.0>
0

>  <SCORE.INTRA.REPUL>
0

>  <SCORE.INTRA.REPUL.0>
0

>  <SCORE.INTRA.VDW>
0

>  <SCORE.INTRA.VDW.0>
0

>  <SCORE.INTRA.norm>
0

>  <SCORE.RESTR>
0

>  <SCORE.RESTR.CAVITY>
0

>  <SCORE.RESTR.norm>
0

>  <SCORE.SYSTEM>
1.02136

>  <SCORE.SYSTEM.CONST>
0

>  <SCORE.SYSTEM.DIHEDRAL>
0.0369521

>  <SCORE.SYSTEM.REPUL>
0.139981

>  <SCORE.SYSTEM.VDW>
0.302973

>  <SCORE.SYSTEM.norm>
0.0638347

>  <SCORE.heavy>
16

>  <SCORE.norm>
-0.647471

>  <enum_code>
T

>  <enum_smi>
Cc1nn2c(=O)c3c([nH]c2c1C#N)CCC3

>  <sha256>
39e1b0cb6462242f67993cb5678037f9b85a03408faf08abbd395fb60bce143b

>  <std_smi>
Cc1nn2c(O)c3c(nc2c1C#N)CCC3

>  <uuid>
40b82413-d70d-48eb-815e-a208d3bb9c02

$$$$
40b82413-d70d-48eb-815e-a208d3bb9c02
  rDOCK(R)          3D
libRbt.so/2013.1/901 2013/11/27
 17 19  0  0  0  0  0  0  0  0999 V2000
   -0.6134   24.7828    6.3409 C   0  0  0  0  0  0
   -2.0040   24.9793    5.8558 C   0  0  0  0  0  0
   -2.5992   26.1724    5.9945 N   0  0  0  0  0  0
   -3.8368   25.9992    5.4540 N   0  0  0  0  0  0
   -4.8061   27.0256    5.3940 C   0  0  0  0  0  0
   -4.6019   28.1511    5.8267 O   0  0  0  0  0  0
   -6.0653   26.5858    4.7618 C   0  0  0  0  0  0
   -6.1967   25.3301    4.3166 C   0  0  0  0  0  0
   -5.2119   24.3790    4.4075 N   0  0  0  0  0  0
   -4.0201   24.7029    4.9771 C   0  0  0  0  0  0
   -2.8490   24.0321    5.2278 C   0  0  0  0  0  0
   -2.5643   22.6737    4.9154 C   0  0  0  0  0  0
   -2.3407   21.5649    4.6571 N   0  0  0  0  0  0
   -7.5449   25.1062    3.7178 C   0  0  0  0  0  0
   -8.0804   26.5391    3.5766 C   0  0  0  0  0  0
   -7.2732   27.4145    4.5453 C   0  0  0  0  0  0
   -5.4223   23.4525    4.0359 H   0  0  0  0  0  0
  1  2  1  0  0  0
  2  3  2  0  0  0
  3  4  1  0  0  0
  4  5  1  0  0  0
  5  6  2  0  0  0
  5  7  1  0  0  0
  7  8  2  0  0  0
  8  9  1  0  0  0
  9 10  1  0  0  0
 10 11  2  0  0  0
 11 12  1  0  0  0
 12 13  3  0  0  0
  8 14  1  0  0  0
 14 15  1  0  0  0
 15 16  1  0  0  0
 11  2  1  0  0  0
 10  4  1  0  0  0
 16  7  1  0  0  0
  9 17  1  0  0  0
M  END
>  <CHROM.0>
-59.88758699,69.13856642

>  <CHROM.1>
-4.42439024,25.37389993,5.00307551,-0.40008417,-0.37633900,0.30615115

>  <Name>
40b82413-d70d-48eb-815e-a208d3bb9c02

>  <RI>
3.03854e+07

>  <Rbt.Current_Directory>
/data/work/jku/5V6S/work/40/8dba899c20c42488f2b1a17844994e

>  <Rbt.Executable>
rbdock ($Id: //depot/dev/client3/rdock/2013.1/src/exe/rbdock.cxx#4 $)

>  <Rbt.Library>
libRbt.so (2013.1, Build901 2013/11/27)

>  <Rbt.Parameter_File>
/rDock_2013.1_src/data/scripts/dock.prm

>  <Rbt.Receptor>
docking.prm

>  <SCORE>
-12.6016

>  <SCORE.INTER>
-11.0882

>  <SCORE.INTER.CONST>
1

>  <SCORE.INTER.POLAR>
-0.0224684

>  <SCORE.INTER.REPUL>
0

>  <SCORE.INTER.ROT>
0

>  <SCORE.INTER.VDW>
-16.4118

>  <SCORE.INTER.norm>
-0.693012

>  <SCORE.INTRA>
0

>  <SCORE.INTRA.DIHEDRAL>
0

>  <SCORE.INTRA.DIHEDRAL.0>
0

>  <SCORE.INTRA.POLAR>
0

>  <SCORE.INTRA.POLAR.0>
0

>  <SCORE.INTRA.REPUL>
0

>  <SCORE.INTRA.REPUL.0>
0

>  <SCORE.INTRA.VDW>
0

>  <SCORE.INTRA.VDW.0>
0

>  <SCORE.INTRA.norm>
0

>  <SCORE.RESTR>
0

>  <SCORE.RESTR.CAVITY>
0

>  <SCORE.RESTR.norm>
0

>  <SCORE.SYSTEM>
-1.51342

>  <SCORE.SYSTEM.CONST>
0

>  <SCORE.SYSTEM.DIHEDRAL>
0.41195

>  <SCORE.SYSTEM.POLAR>
-0.503063

>  <SCORE.SYSTEM.VDW>
-0.00898303

>  <SCORE.SYSTEM.norm>
-0.0945889

>  <SCORE.heavy>
16

>  <SCORE.norm>
-0.787601

>  <enum_code>
T

>  <enum_smi>
Cc1nn2c(=O)c3c([nH]c2c1C#N)CCC3

>  <sha256>
39e1b0cb6462242f67993cb5678037f9b85a03408faf08abbd395fb60bce143b

>  <std_smi>
Cc1nn2c(O)c3c(nc2c1C#N)CCC3

>  <uuid>
40b82413-d70d-48eb-815e-a208d3bb9c02

$$$$
c37a530a-6b91-4672-8f7a-80e7b966985d
  rDOCK(R)          3D
libRbt.so/2013.1/901 2013/11/27
 16 18  0  0  0  0  0  0  0  0999 V2000
   -0.7303   24.7226    6.4217 C   0  0  0  0  0  0
   -2.0856   24.9812    5.8712 C   0  0  0  0  0  0
   -2.6495   26.1873    6.0080 N   0  0  0  0  0  0
   -3.8475   26.0699    5.3829 N   0  0  0  0  0  0
   -4.7284   27.1474    5.2349 C   0  0  0  0  0  0
   -4.5513   28.2221    5.7921 O   0  0  0  0  0  0
   -5.7913   26.8336    4.2309 C   0  0  0  0  0  0
   -6.1118   25.3742    4.1049 C   0  0  0  0  0  0
   -5.2811   24.4135    4.3584 N   0  0  0  0  0  0
   -4.0868   24.7878    4.9029 C   0  0  0  0  0  0
   -2.9386   24.0804    5.1936 C   0  0  0  0  0  0
   -2.6950   22.7092    4.8950 C   0  0  0  0  0  0
   -2.4560   21.5969    4.6650 N   0  0  0  0  0  0
   -7.5343   25.1242    3.6933 C   0  0  0  0  0  0
   -8.0978   26.5439    3.6452 C   0  0  0  0  0  0
   -7.1777   27.3807    4.5374 C   0  0  0  0  0  0
  1  2  1  0  0  0
  2  3  2  0  0  0
  3  4  1  0  0  0
  4  5  1  0  0  0
  5  6  2  0  0  0
  5  7  1  0  0  0
  7  8  1  0  0  0
  8  9  2  0  0  0
  9 10  1  0  0  0
 10 11  2  0  0  0
 11 12  1  0  0  0
 12 13  3  0  0  0
  8 14  1  0  0  0
 14 15  1  0  0  0
 15 16  1  0  0  0
 11  2  1  0  0  0
 10  4  1  0  0  0
 16  7  1  0  0  0
M  END
>  <CHROM.0>
-59.88758699,69.18384738

>  <CHROM.1>
-4.43698573,25.43286412,4.94608770,-0.41673018,-0.39818468,0.28345283

>  <Name>
c37a530a-6b91-4672-8f7a-80e7b966985d

>  <RI>
3.36827e+07

>  <Rbt.Current_Directory>
/data/work/jku/5V6S/work/40/8dba899c20c42488f2b1a17844994e

>  <Rbt.Executable>
rbdock ($Id: //depot/dev/client3/rdock/2013.1/src/exe/rbdock.cxx#4 $)

>  <Rbt.Library>
libRbt.so (2013.1, Build901 2013/11/27)

>  <Rbt.Parameter_File>
/rDock_2013.1_src/data/scripts/dock.prm

>  <Rbt.Receptor>
docking.prm

>  <SCORE>
-12.0339

>  <SCORE.INTER>
-10.5206

>  <SCORE.INTER.CONST>
1

>  <SCORE.INTER.POLAR>
-0.00371821

>  <SCORE.INTER.REPUL>
0

>  <SCORE.INTER.ROT>
0

>  <SCORE.INTER.VDW>
-15.908

>  <SCORE.INTER.norm>
-0.657539

>  <SCORE.INTRA>
0

>  <SCORE.INTRA.DIHEDRAL>
0

>  <SCORE.INTRA.DIHEDRAL.0>
0

>  <SCORE.INTRA.POLAR>
0

>  <SCORE.INTRA.POLAR.0>
0

>  <SCORE.INTRA.REPUL>
0

>  <SCORE.INTRA.REPUL.0>
0

>  <SCORE.INTRA.VDW>
0

>  <SCORE.INTRA.VDW.0>
0

>  <SCORE.INTRA.norm>
0

>  <SCORE.RESTR>
0

>  <SCORE.RESTR.CAVITY>
0

>  <SCORE.RESTR.norm>
0

>  <SCORE.SYSTEM>
-1.51331

>  <SCORE.SYSTEM.CONST>
0

>  <SCORE.SYSTEM.DIHEDRAL>
0.415889

>  <SCORE.SYSTEM.POLAR>
-0.503085

>  <SCORE.SYSTEM.VDW>
-0.0107712

>  <SCORE.SYSTEM.norm>
-0.0945822

>  <SCORE.heavy>
16

>  <SCORE.norm>
-0.752121

>  <enum_code>
T

>  <enum_smi>
Cc1nn2c(c1C#N)N=C1CCCC1C2=O

>  <sha256>
39e1b0cb6462242f67993cb5678037f9b85a03408faf08abbd395fb60bce143b

>  <std_smi>
Cc1nn2c(O)c3c(nc2c1C#N)CCC3

>  <uuid>
c37a530a-6b91-4672-8f7a-80e7b966985d

$$$$
c37a530a-6b91-4672-8f7a-80e7b966985d
  rDOCK(R)          3D
libRbt.so/2013.1/901 2013/11/27
 16 18  0  0  0  0  0  0  0  0999 V2000
   -2.3062   26.5788    5.0635 C   0  0  0  0  0  0
   -1.8969   27.7655    4.2691 C   0  0  0  0  0  0
   -1.3199   27.6081    3.0717 N   0  0  0  0  0  0
   -1.1044   28.8740    2.6347 N   0  0  0  0  0  0
   -0.5753   29.1541    1.3696 C   0  0  0  0  0  0
   -0.1267   28.2826    0.6375 O   0  0  0  0  0  0
   -0.7618   30.5962    1.0206 C   0  0  0  0  0  0
   -0.8242   31.5159    2.2032 C   0  0  0  0  0  0
   -1.2271   31.1700    3.3844 N   0  0  0  0  0  0
   -1.4767   29.8399    3.5621 C   0  0  0  0  0  0
   -2.0146   29.1307    4.6161 C   0  0  0  0  0  0
   -2.5440   29.6801    5.8188 C   0  0  0  0  0  0
   -2.9888   30.0885    6.8101 N   0  0  0  0  0  0
   -0.3187   32.8960    1.8945 C   0  0  0  0  0  0
    0.1347   32.7433    0.4431 C   0  0  0  0  0  0
    0.3747   31.2447    0.2441 C   0  0  0  0  0  0
  1  2  1  0  0  0
  2  3  2  0  0  0
  3  4  1  0  0  0
  4  5  1  0  0  0
  5  6  2  0  0  0
  5  7  1  0  0  0
  7  8  1  0  0  0
  8  9  2  0  0  0
  9 10  1  0  0  0
 10 11  2  0  0  0
 11 12  1  0  0  0
 12 13  3  0  0  0
  8 14  1  0  0  0
 14 15  1  0  0  0
 15 16  1  0  0  0
 11  2  1  0  0  0
 10  4  1  0  0  0
 16  7  1  0  0  0
M  END
>  <CHROM.0>
-59.88758699,69.23985354

>  <CHROM.1>
-1.16247872,29.80751273,2.89811620,-2.68808215,1.13360065,0.13134183

>  <Name>
c37a530a-6b91-4672-8f7a-80e7b966985d

>  <RI>
3.36827e+07

>  <Rbt.Current_Directory>
/data/work/jku/5V6S/work/40/8dba899c20c42488f2b1a17844994e

>  <Rbt.Executable>
rbdock ($Id: //depot/dev/client3/rdock/2013.1/src/exe/rbdock.cxx#4 $)

>  <Rbt.Library>
libRbt.so (2013.1, Build901 2013/11/27)

>  <Rbt.Parameter_File>
/rDock_2013.1_src/data/scripts/dock.prm

>  <Rbt.Receptor>
docking.prm

>  <SCORE>
-13.7614

>  <SCORE.INTER>
-12.2483

>  <SCORE.INTER.CONST>
1

>  <SCORE.INTER.POLAR>
0

>  <SCORE.INTER.REPUL>
0.0273184

>  <SCORE.INTER.ROT>
0

>  <SCORE.INTER.VDW>
-17.7849

>  <SCORE.INTER.norm>
-0.765518

>  <SCORE.INTRA>
0

>  <SCORE.INTRA.DIHEDRAL>
0

>  <SCORE.INTRA.DIHEDRAL.0>
0

>  <SCORE.INTRA.POLAR>
0

>  <SCORE.INTRA.POLAR.0>
0

>  <SCORE.INTRA.REPUL>
0

>  <SCORE.INTRA.REPUL.0>
0

>  <SCORE.INTRA.VDW>
0

>  <SCORE.INTRA.VDW.0>
0

>  <SCORE.INTRA.norm>
0

>  <SCORE.RESTR>
0

>  <SCORE.RESTR.CAVITY>
0

>  <SCORE.RESTR.norm>
0

>  <SCORE.SYSTEM>
-1.51316

>  <SCORE.SYSTEM.CONST>
0

>  <SCORE.SYSTEM.DIHEDRAL>
0.420786

>  <SCORE.SYSTEM.POLAR>
-0.503109

>  <SCORE.SYSTEM.VDW>
-0.0129765

>  <SCORE.SYSTEM.norm>
-0.0945722

>  <SCORE.heavy>
16

>  <SCORE.norm>
-0.86009

>  <enum_code>
T

>  <enum_smi>
Cc1nn2c(c1C#N)N=C1CCCC1C2=O

>  <sha256>
39e1b0cb6462242f67993cb5678037f9b85a03408faf08abbd395fb60bce143b

>  <std_smi>
Cc1nn2c(O)c3c(nc2c1C#N)CCC3

>  <uuid>
c37a530a-6b91-4672-8f7a-80e7b966985d

$$$$
c37a530a-6b91-4672-8f7a-80e7b966985d
  rDOCK(R)          3D
libRbt.so/2013.1/901 2013/11/27
 16 18  0  0  0  0  0  0  0  0999 V2000
   -2.1621   22.0739    3.6584 C   0  0  0  0  0  0
   -2.7013   23.3953    4.0709 C   0  0  0  0  0  0
   -4.0233   23.5876    4.1528 N   0  0  0  0  0  0
   -4.1497   24.8727    4.5679 N   0  0  0  0  0  0
   -5.3911   25.4538    4.8513 C   0  0  0  0  0  0
   -6.4505   24.8980    4.5952 O   0  0  0  0  0  0
   -5.2211   26.7360    5.6019 C   0  0  0  0  0  0
   -3.9270   27.4438    5.3323 C   0  0  0  0  0  0
   -2.8301   26.8593    4.9687 N   0  0  0  0  0  0
   -2.9296   25.5264    4.6920 C   0  0  0  0  0  0
   -1.9824   24.5684    4.3950 C   0  0  0  0  0  0
   -0.5701   24.7534    4.3870 C   0  0  0  0  0  0
    0.5854   24.8619    4.3742 N   0  0  0  0  0  0
   -4.0370   28.9342    5.4807 C   0  0  0  0  0  0
   -5.5233   29.1066    5.7916 C   0  0  0  0  0  0
   -6.2035   27.8449    5.2546 C   0  0  0  0  0  0
  1  2  1  0  0  0
  2  3  2  0  0  0
  3  4  1  0  0  0
  4  5  1  0  0  0
  5  6  2  0  0  0
  5  7  1  0  0  0
  7  8  1  0  0  0
  8  9  2  0  0  0
  9 10  1  0  0  0
 10 11  2  0  0  0
 11 12  1  0  0  0
 12 13  3  0  0  0
  8 14  1  0  0  0
 14 15  1  0  0  0
 15 16  1  0  0  0
 11  2  1  0  0  0
 10  4  1  0  0  0
 16  7  1  0  0  0
M  END
>  <CHROM.0>
-59.88758699,68.74559673

>  <CHROM.1>
-3.64534253,25.68113186,4.75820726,0.84482981,-0.04345004,-2.87650991

>  <Name>
c37a530a-6b91-4672-8f7a-80e7b966985d

>  <RI>
3.36827e+07

>  <Rbt.Current_Directory>
/data/work/jku/5V6S/work/40/8dba899c20c42488f2b1a17844994e

>  <Rbt.Executable>
rbdock ($Id: //depot/dev/client3/rdock/2013.1/src/exe/rbdock.cxx#4 $)

>  <Rbt.Library>
libRbt.so (2013.1, Build901 2013/11/27)

>  <Rbt.Parameter_File>
/rDock_2013.1_src/data/scripts/dock.prm

>  <Rbt.Receptor>
docking.prm

>  <SCORE>
-11.0528

>  <SCORE.INTER>
-9.53931

>  <SCORE.INTER.CONST>
1

>  <SCORE.INTER.POLAR>
0

>  <SCORE.INTER.REPUL>
0

>  <SCORE.INTER.ROT>
0

>  <SCORE.INTER.VDW>
-14.9393

>  <SCORE.INTER.norm>
-0.596207

>  <SCORE.INTRA>
0

>  <SCORE.INTRA.DIHEDRAL>
0

>  <SCORE.INTRA.DIHEDRAL.0>
0

>  <SCORE.INTRA.POLAR>
0

>  <SCORE.INTRA.POLAR.0>
0

>  <SCORE.INTRA.REPUL>
0

>  <SCORE.INTRA.REPUL.0>
0

>  <SCORE.INTRA.VDW>
0

>  <SCORE.INTRA.VDW.0>
0

>  <SCORE.INTRA.norm>
0

>  <SCORE.RESTR>
0

>  <SCORE.RESTR.CAVITY>
0

>  <SCORE.RESTR.norm>
0

>  <SCORE.SYSTEM>
-1.51354

>  <SCORE.SYSTEM.CONST>
0

>  <SCORE.SYSTEM.DIHEDRAL>
0.378522

>  <SCORE.SYSTEM.POLAR>
-0.502804

>  <SCORE.SYSTEM.VDW>
0.0067319

>  <SCORE.SYSTEM.norm>
-0.0945963

>  <SCORE.heavy>
16

>  <SCORE.norm>
-0.690803

>  <enum_code>
T

>  <enum_smi>
Cc1nn2c(c1C#N)N=C1CCCC1C2=O

>  <sha256>
39e1b0cb6462242f67993cb5678037f9b85a03408faf08abbd395fb60bce143b

>  <std_smi>
Cc1nn2c(O)c3c(nc2c1C#N)CCC3

>  <uuid>
c37a530a-6b91-4672-8f7a-80e7b966985d

$$$$
c37a530a-6b91-4672-8f7a-80e7b966985d
  rDOCK(R)          3D
libRbt.so/2013.1/901 2013/11/27
 16 18  0  0  0  0  0  0  0  0999 V2000
   -2.2203   21.5576    3.9010 C   0  0  0  0  0  0
   -3.2111   22.6545    4.0496 C   0  0  0  0  0  0
   -4.2981   22.6906    3.2695 N   0  0  0  0  0  0
   -4.9729   23.7911    3.6860 N   0  0  0  0  0  0
   -6.2218   24.1501    3.1661 C   0  0  0  0  0  0
   -6.7155   23.5904    2.1968 O   0  0  0  0  0  0
   -6.8804   25.1822    4.0248 C   0  0  0  0  0  0
   -5.9269   26.0560    4.7835 C   0  0  0  0  0  0
   -4.7357   25.7024    5.1486 N   0  0  0  0  0  0
   -4.3028   24.4964    4.6784 C   0  0  0  0  0  0
   -3.1699   23.7530    4.9381 C   0  0  0  0  0  0
   -2.1564   24.0654    5.8889 C   0  0  0  0  0  0
   -1.3124   24.2818    6.6558 N   0  0  0  0  0  0
   -6.4775   27.4285    5.0449 C   0  0  0  0  0  0
   -7.8228   27.3663    4.3227 C   0  0  0  0  0  0
   -7.6819   26.2461    3.2892 C   0  0  0  0  0  0
  1  2  1  0  0  0
  2  3  2  0  0  0
  3  4  1  0  0  0
  4  5  1  0  0  0
  5  6  2  0  0  0
  5  7  1  0  0  0
  7  8  1  0  0  0
  8  9  2  0  0  0
  9 10  1  0  0  0
 10 11  2  0  0  0
 11 12  1  0  0  0
 12 13  3  0  0  0
  8 14  1  0  0  0
 14 15  1  0  0  0
 15 16  1  0  0  0
 11  2  1  0  0  0
 10  4  1  0  0  0
 16  7  1  0  0  0
M  END
>  <CHROM.0>
-59.88758699,69.08339968

>  <CHROM.1>
-4.91747671,24.55816174,4.27983933,0.36012916,0.51624929,-2.50794120

>  <Name>
c37a530a-6b91-4672-8f7a-80e7b966985d

>  <RI>
3.36827e+07

>  <Rbt.Current_Directory>
/data/work/jku/5V6S/work/40/8dba899c20c42488f2b1a17844994e

>  <Rbt.Executable>
rbdock ($Id: //depot/dev/client3/rdock/2013.1/src/exe/rbdock.cxx#4 $)

>  <Rbt.Library>
libRbt.so (2013.1, Build901 2013/11/27)

>  <Rbt.Parameter_File>
/rDock_2013.1_src/data/scripts/dock.prm

>  <Rbt.Receptor>
docking.prm

>  <SCORE>
-12.2484

>  <SCORE.INTER>
-10.7349

>  <SCORE.INTER.CONST>
1

>  <SCORE.INTER.POLAR>
0

>  <SCORE.INTER.REPUL>
0

>  <SCORE.INTER.ROT>
0

>  <SCORE.INTER.VDW>
-16.1349

>  <SCORE.INTER.norm>
-0.670929

>  <SCORE.INTRA>
0

>  <SCORE.INTRA.DIHEDRAL>
0

>  <SCORE.INTRA.DIHEDRAL.0>
0

>  <SCORE.INTRA.POLAR>
0

>  <SCORE.INTRA.POLAR.0>
0

>  <SCORE.INTRA.REPUL>
0

>  <SCORE.INTRA.REPUL.0>
0

>  <SCORE.INTRA.VDW>
0

>  <SCORE.INTRA.VDW.0>
0

>  <SCORE.INTRA.norm>
0

>  <SCORE.RESTR>
0

>  <SCORE.RESTR.CAVITY>
0

>  <SCORE.RESTR.norm>
0

>  <SCORE.SYSTEM>
-1.51353

>  <SCORE.SYSTEM.CONST>
0

>  <SCORE.SYSTEM.DIHEDRAL>
0.407175

>  <SCORE.SYSTEM.POLAR>
-0.503034

>  <SCORE.SYSTEM.VDW>
-0.00679818

>  <SCORE.SYSTEM.norm>
-0.0945954

>  <SCORE.heavy>
16

>  <SCORE.norm>
-0.765524

>  <enum_code>
T

>  <enum_smi>
Cc1nn2c(c1C#N)N=C1CCCC1C2=O

>  <sha256>
39e1b0cb6462242f67993cb5678037f9b85a03408faf08abbd395fb60bce143b

>  <std_smi>
Cc1nn2c(O)c3c(nc2c1C#N)CCC3

>  <uuid>
c37a530a-6b91-4672-8f7a-80e7b966985d

$$$$
c37a530a-6b91-4672-8f7a-80e7b966985d
  rDOCK(R)          3D
libRbt.so/2013.1/901 2013/11/27
 16 18  0  0  0  0  0  0  0  0999 V2000
   -2.3644   21.4913    4.0782 C   0  0  0  0  0  0
   -3.3234   22.6196    4.1967 C   0  0  0  0  0  0
   -4.4138   22.6612    3.4215 N   0  0  0  0  0  0
   -5.0552   23.7928    3.8060 N   0  0  0  0  0  0
   -6.2968   24.1699    3.2814 C   0  0  0  0  0  0
   -6.8118   23.5934    2.3332 O   0  0  0  0  0  0
   -6.9212   25.2469    4.1099 C   0  0  0  0  0  0
   -5.9390   26.1175    4.8350 C   0  0  0  0  0  0
   -4.7560   25.7426    5.2051 N   0  0  0  0  0  0
   -4.3596   24.5105    4.7716 C   0  0  0  0  0  0
   -3.2462   23.7445    5.0492 C   0  0  0  0  0  0
   -2.2186   24.0587    5.9841 C   0  0  0  0  0  0
   -1.3642   24.2758    6.7391 N   0  0  0  0  0  0
   -6.4496   27.5126    5.0550 C   0  0  0  0  0  0
   -7.8006   27.4650    4.3423 C   0  0  0  0  0  0
   -7.6972   26.3087    3.3446 C   0  0  0  0  0  0
  1  2  1  0  0  0
  2  3  2  0  0  0
  3  4  1  0  0  0
  4  5  1  0  0  0
  5  6  2  0  0  0
  5  7  1  0  0  0
  7  8  1  0  0  0
  8  9  2  0  0  0
  9 10  1  0  0  0
 10 11  2  0  0  0
 11 12  1  0  0  0
 12 13  3  0  0  0
  8 14  1  0  0  0
 14 15  1  0  0  0
 15 16  1  0  0  0
 11  2  1  0  0  0
 10  4  1  0  0  0
 16  7  1  0  0  0
M  END
>  <CHROM.0>
-59.88758699,69.03698060

>  <CHROM.1>
-4.97477195,24.57670063,4.37450400,0.39027192,0.52754721,-2.55507664

>  <Name>
c37a530a-6b91-4672-8f7a-80e7b966985d

>  <RI>
3.36827e+07

>  <Rbt.Current_Directory>
/data/work/jku/5V6S/work/40/8dba899c20c42488f2b1a17844994e

>  <Rbt.Executable>
rbdock ($Id: //depot/dev/client3/rdock/2013.1/src/exe/rbdock.cxx#4 $)

>  <Rbt.Library>
libRbt.so (2013.1, Build901 2013/11/27)

>  <Rbt.Parameter_File>
/rDock_2013.1_src/data/scripts/dock.prm

>  <Rbt.Receptor>
docking.prm

>  <SCORE>
-12.3034

>  <SCORE.INTER>
-10.7899

>  <SCORE.INTER.CONST>
1

>  <SCORE.INTER.POLAR>
0

>  <SCORE.INTER.REPUL>
0

>  <SCORE.INTER.ROT>
0

>  <SCORE.INTER.VDW>
-16.1899

>  <SCORE.INTER.norm>
-0.674366

>  <SCORE.INTRA>
0

>  <SCORE.INTRA.DIHEDRAL>
0

>  <SCORE.INTRA.DIHEDRAL.0>
0

>  <SCORE.INTRA.POLAR>
0

>  <SCORE.INTRA.POLAR.0>
0

>  <SCORE.INTRA.REPUL>
0

>  <SCORE.INTRA.REPUL.0>
0

>  <SCORE.INTRA.VDW>
0

>  <SCORE.INTRA.VDW.0>
0

>  <SCORE.INTRA.norm>
0

>  <SCORE.RESTR>
0

>  <SCORE.RESTR.CAVITY>
0

>  <SCORE.RESTR.norm>
0

>  <SCORE.SYSTEM>
-1.51359

>  <SCORE.SYSTEM.CONST>
0

>  <SCORE.SYSTEM.DIHEDRAL>
0.403178

>  <SCORE.SYSTEM.POLAR>
-0.503008

>  <SCORE.SYSTEM.VDW>
-0.00495441

>  <SCORE.SYSTEM.norm>
-0.0945995

>  <SCORE.heavy>
16

>  <SCORE.norm>
-0.768965

>  <enum_code>
T

>  <enum_smi>
Cc1nn2c(c1C#N)N=C1CCCC1C2=O

>  <sha256>
39e1b0cb6462242f67993cb5678037f9b85a03408faf08abbd395fb60bce143b

>  <std_smi>
Cc1nn2c(O)c3c(nc2c1C#N)CCC3

>  <uuid>
c37a530a-6b91-4672-8f7a-80e7b966985d

$$$$
22184636-3d38-48ca-83b4-132311d4184a
  rDOCK(R)          3D
libRbt.so/2013.1/901 2013/11/27
 18 20  0  0  0  0  0  0  0  0999 V2000
   -7.5416   21.1002    2.4092 C   0  0  0  0  0  0
   -6.9456   22.3296    2.9936 C   0  0  0  0  0  0
   -7.5786   23.5054    2.8710 N   0  0  0  0  0  0
   -6.7692   24.4001    3.5090 N   0  0  0  0  0  0
   -6.9959   25.7865    3.6590 C   0  0  0  0  0  0
   -8.1422   26.3485    3.1225 O   0  0  0  0  0  0
   -6.0851   26.5187    4.3218 C   0  0  0  0  0  0
   -4.8920   25.8912    4.8716 C   0  0  0  0  0  0
   -4.7129   24.5379    4.7014 N   0  0  0  0  0  0
   -5.6285   23.7767    4.0300 C   0  0  0  0  0  0
   -5.7288   22.4476    3.7064 C   0  0  0  0  0  0
   -4.7978   21.4217    4.0279 C   0  0  0  0  0  0
   -4.0394   20.5831    4.2891 N   0  0  0  0  0  0
   -4.1356   26.8026    5.4830 C   0  0  0  0  0  0
   -4.7449   28.1710    5.4126 C   0  0  0  0  0  0
   -6.0551   27.9803    4.6322 C   0  0  0  0  0  0
   -8.4850   25.6810    2.4913 H   0  0  0  0  0  0
   -3.8633   24.1499    5.1047 H   0  0  0  0  0  0
  1  2  1  0  0  0
  2  3  2  0  0  0
  3  4  1  0  0  0
  4  5  1  0  0  0
  5  6  1  0  0  0
  5  7  2  0  0  0
  7  8  1  0  0  0
  8  9  1  0  0  0
  9 10  1  0  0  0
 10 11  2  0  0  0
 11 12  1  0  0  0
 12 13  3  0  0  0
  8 14  2  0  0  0
 14 15  1  0  0  0
 15 16  1  0  0  0
 11  2  1  0  0  0
 10  4  1  0  0  0
 16  7  1  0  0  0
  6 17  1  0  0  0
  9 18  1  0  0  0
M  END
>  <CHROM.0>
-59.88758699,68.96820121

>  <CHROM.1>
-15.93271112,-5.96717791,24.49977413,3.98192293,1.65486361,0.50861900,-2.94380818

>  <Name>
22184636-3d38-48ca-83b4-132311d4184a

>  <RI>
1.07615e+07

>  <Rbt.Current_Directory>
/data/work/jku/5V6S/work/40/8dba899c20c42488f2b1a17844994e

>  <Rbt.Executable>
rbdock ($Id: //depot/dev/client3/rdock/2013.1/src/exe/rbdock.cxx#4 $)

>  <Rbt.Library>
libRbt.so (2013.1, Build901 2013/11/27)

>  <Rbt.Parameter_File>
/rDock_2013.1_src/data/scripts/dock.prm

>  <Rbt.Receptor>
docking.prm

>  <SCORE>
-9.30952

>  <SCORE.INTER>
-8.15924

>  <SCORE.INTER.CONST>
1

>  <SCORE.INTER.POLAR>
-1.02946

>  <SCORE.INTER.REPUL>
0.548633

>  <SCORE.INTER.ROT>
0

>  <SCORE.INTER.VDW>
-12.8022

>  <SCORE.INTER.norm>
-0.509953

>  <SCORE.INTRA>
0.363372

>  <SCORE.INTRA.DIHEDRAL>
0.36178

>  <SCORE.INTRA.DIHEDRAL.0>
1.92105e-08

>  <SCORE.INTRA.POLAR>
0.0601942

>  <SCORE.INTRA.POLAR.0>
-0.1779

>  <SCORE.INTRA.REPUL>
0

>  <SCORE.INTRA.REPUL.0>
0

>  <SCORE.INTRA.VDW>
-0.0221786

>  <SCORE.INTRA.VDW.0>
-0.0720878

>  <SCORE.INTRA.norm>
0.0227107

>  <SCORE.RESTR>
0

>  <SCORE.RESTR.CAVITY>
0

>  <SCORE.RESTR.norm>
0

>  <SCORE.SYSTEM>
-1.51365

>  <SCORE.SYSTEM.CONST>
0

>  <SCORE.SYSTEM.DIHEDRAL>
0.397291

>  <SCORE.SYSTEM.POLAR>
-0.502966

>  <SCORE.SYSTEM.VDW>
-0.00221346

>  <SCORE.SYSTEM.norm>
-0.0946033

>  <SCORE.heavy>
16

>  <SCORE.norm>
-0.581845

>  <enum_code>
T

>  <enum_smi>
Cc1nn2c(c1C#N)NC1=CCCC1=C2O

>  <sha256>
39e1b0cb6462242f67993cb5678037f9b85a03408faf08abbd395fb60bce143b

>  <std_smi>
Cc1nn2c(O)c3c(nc2c1C#N)CCC3

>  <uuid>
22184636-3d38-48ca-83b4-132311d4184a

$$$$
22184636-3d38-48ca-83b4-132311d4184a
  rDOCK(R)          3D
libRbt.so/2013.1/901 2013/11/27
 18 20  0  0  0  0  0  0  0  0999 V2000
   -0.4625   24.8324    6.2605 C   0  0  0  0  0  0
   -1.8545   24.9971    5.7673 C   0  0  0  0  0  0
   -2.4842   26.1716    5.9159 N   0  0  0  0  0  0
   -3.7163   25.9740    5.3633 N   0  0  0  0  0  0
   -4.7619   26.9196    5.2705 C   0  0  0  0  0  0
   -4.5707   28.1943    5.7766 O   0  0  0  0  0  0
   -5.9151   26.5477    4.6902 C   0  0  0  0  0  0
   -6.0780   25.1978    4.1699 C   0  0  0  0  0  0
   -5.0328   24.3104    4.2822 N   0  0  0  0  0  0
   -3.8521   24.6706    4.8693 C   0  0  0  0  0  0
   -2.6644   24.0325    5.1221 C   0  0  0  0  0  0
   -2.3360   22.6875    4.7971 C   0  0  0  0  0  0
   -2.0659   21.5903    4.5328 N   0  0  0  0  0  0
   -7.2934   25.0540    3.6420 C   0  0  0  0  0  0
   -8.1004   26.3133    3.7493 C   0  0  0  0  0  0
   -7.1743   27.3173    4.4537 C   0  0  0  0  0  0
   -3.6431   28.2087    6.0943 H   0  0  0  0  0  0
   -5.1987   23.3812    3.9027 H   0  0  0  0  0  0
  1  2  1  0  0  0
  2  3  2  0  0  0
  3  4  1  0  0  0
  4  5  1  0  0  0
  5  6  1  0  0  0
  5  7  2  0  0  0
  7  8  1  0  0  0
  8  9  1  0  0  0
  9 10  1  0  0  0
 10 11  2  0  0  0
 11 12  1  0  0  0
 12 13  3  0  0  0
  8 14  2  0  0  0
 14 15  1  0  0  0
 15 16  1  0  0  0
 11  2  1  0  0  0
 10  4  1  0  0  0
 16  7  1  0  0  0
  6 17  1  0  0  0
  9 18  1  0  0  0
M  END
>  <CHROM.0>
-59.88758699,68.82606518

>  <CHROM.1>
2.84955404,-4.26802679,25.35051134,4.93483617,-0.39145883,-0.35739462,0.32553105

>  <Name>
22184636-3d38-48ca-83b4-132311d4184a

>  <RI>
1.07615e+07

>  <Rbt.Current_Directory>
/data/work/jku/5V6S/work/40/8dba899c20c42488f2b1a17844994e

>  <Rbt.Executable>
rbdock ($Id: //depot/dev/client3/rdock/2013.1/src/exe/rbdock.cxx#4 $)

>  <Rbt.Library>
libRbt.so (2013.1, Build901 2013/11/27)

>  <Rbt.Parameter_File>
/rDock_2013.1_src/data/scripts/dock.prm

>  <Rbt.Receptor>
docking.prm

>  <SCORE>
-12.7964

>  <SCORE.INTER>
-11.2953

>  <SCORE.INTER.CONST>
1

>  <SCORE.INTER.POLAR>
-0.0587519

>  <SCORE.INTER.REPUL>
0

>  <SCORE.INTER.ROT>
0

>  <SCORE.INTER.VDW>
-16.4955

>  <SCORE.INTER.norm>
-0.705955

>  <SCORE.INTRA>
0.0125196

>  <SCORE.INTRA.DIHEDRAL>
0.0118484

>  <SCORE.INTRA.DIHEDRAL.0>
1.92105e-08

>  <SCORE.INTRA.POLAR>
0.00216452

>  <SCORE.INTRA.POLAR.0>
-0.1779

>  <SCORE.INTRA.REPUL>
0

>  <SCORE.INTRA.REPUL.0>
0

>  <SCORE.INTRA.VDW>
-0.000763966

>  <SCORE.INTRA.VDW.0>
-0.0720878

>  <SCORE.INTRA.norm>
0.000782474

>  <SCORE.RESTR>
0

>  <SCORE.RESTR.CAVITY>
0

>  <SCORE.RESTR.norm>
0

>  <SCORE.SYSTEM>
-1.51364

>  <SCORE.SYSTEM.CONST>
0

>  <SCORE.SYSTEM.DIHEDRAL>
0.385257

>  <SCORE.SYSTEM.POLAR>
-0.502867

>  <SCORE.SYSTEM.VDW>
0.00348514

>  <SCORE.SYSTEM.norm>
-0.0946022

>  <SCORE.heavy>
16

>  <SCORE.norm>
-0.799775

>  <enum_code>
T

>  <enum_smi>
Cc1nn2c(c1C#N)NC1=CCCC1=C2O

>  <sha256>
39e1b0cb6462242f67993cb5678037f9b85a03408faf08abbd395fb60bce143b

>  <std_smi>
Cc1nn2c(O)c3c(nc2c1C#N)CCC3

>  <uuid>
22184636-3d38-48ca-83b4-132311d4184a

$$$$
22184636-3d38-48ca-83b4-132311d4184a
  rDOCK(R)          3D
libRbt.so/2013.1/901 2013/11/27
 18 20  0  0  0  0  0  0  0  0999 V2000
   -2.2973   21.6367    3.7868 C   0  0  0  0  0  0
   -2.7614   23.0022    4.1446 C   0  0  0  0  0  0
   -4.0734   23.2589    4.2484 N   0  0  0  0  0  0
   -4.1401   24.5803    4.5831 N   0  0  0  0  0  0
   -5.3121   25.3364    4.8086 C   0  0  0  0  0  0
   -6.5482   24.7232    4.6910 O   0  0  0  0  0  0
   -5.1874   26.6344    5.1318 C   0  0  0  0  0  0
   -3.8700   27.2434    5.2458 C   0  0  0  0  0  0
   -2.7563   26.4686    5.0174 N   0  0  0  0  0  0
   -2.8635   25.1464    4.6876 C   0  0  0  0  0  0
   -1.9691   24.1446    4.4086 C   0  0  0  0  0  0
   -0.5510   24.2510    4.3931 C   0  0  0  0  0  0
    0.6063   24.3356    4.3799 N   0  0  0  0  0  0
   -3.9870   28.5301    5.5734 C   0  0  0  0  0  0
   -5.4220   28.9399    5.7194 C   0  0  0  0  0  0
   -6.2289   27.6660    5.4227 C   0  0  0  0  0  0
   -7.1049   25.1304    5.3879 H   0  0  0  0  0  0
   -1.8610   26.9428    5.1101 H   0  0  0  0  0  0
  1  2  1  0  0  0
  2  3  2  0  0  0
  3  4  1  0  0  0
  4  5  1  0  0  0
  5  6  1  0  0  0
  5  7  2  0  0  0
  7  8  1  0  0  0
  8  9  1  0  0  0
  9 10  1  0  0  0
 10 11  2  0  0  0
 11 12  1  0  0  0
 12 13  3  0  0  0
  8 14  2  0  0  0
 14 15  1  0  0  0
 15 16  1  0  0  0
 11  2  1  0  0  0
 10  4  1  0  0  0
 16  7  1  0  0  0
  6 17  1  0  0  0
  9 18  1  0  0  0
M  END
>  <CHROM.0>
-59.88758699,68.36865750

>  <CHROM.1>
143.71700621,-3.63753869,25.35391673,4.76572504,0.85510551,-0.03200500,-2.89622492

>  <Name>
22184636-3d38-48ca-83b4-132311d4184a

>  <RI>
1.07615e+07

>  <Rbt.Current_Directory>
/data/work/jku/5V6S/work/40/8dba899c20c42488f2b1a17844994e

>  <Rbt.Executable>
rbdock ($Id: //depot/dev/client3/rdock/2013.1/src/exe/rbdock.cxx#4 $)

>  <Rbt.Library>
libRbt.so (2013.1, Build901 2013/11/27)

>  <Rbt.Parameter_File>
/rDock_2013.1_src/data/scripts/dock.prm

>  <Rbt.Receptor>
docking.prm

>  <SCORE>
-11.8484

>  <SCORE.INTER>
-11.9524

>  <SCORE.INTER.CONST>
1

>  <SCORE.INTER.POLAR>
-0.698147

>  <SCORE.INTER.REPUL>
0

>  <SCORE.INTER.ROT>
0

>  <SCORE.INTER.VDW>
-14.9787

>  <SCORE.INTER.norm>
-0.747025

>  <SCORE.INTRA>
1.61624

>  <SCORE.INTRA.DIHEDRAL>
1.68108

>  <SCORE.INTRA.DIHEDRAL.0>
1.92105e-08

>  <SCORE.INTRA.POLAR>
0.1779

>  <SCORE.INTRA.POLAR.0>
-0.1779

>  <SCORE.INTRA.REPUL>
0

>  <SCORE.INTRA.REPUL.0>
0

>  <SCORE.INTRA.VDW>
0.170835

>  <SCORE.INTRA.VDW.0>
-0.0720878

>  <SCORE.INTRA.norm>
0.101015

>  <SCORE.RESTR>
0

>  <SCORE.RESTR.CAVITY>
0

>  <SCORE.RESTR.norm>
0

>  <SCORE.SYSTEM>
-1.51228

>  <SCORE.SYSTEM.CONST>
0

>  <SCORE.SYSTEM.DIHEDRAL>
0.347743

>  <SCORE.SYSTEM.POLAR>
-0.502438

>  <SCORE.SYSTEM.VDW>
0.0221403

>  <SCORE.SYSTEM.norm>
-0.0945173

>  <SCORE.heavy>
16

>  <SCORE.norm>
-0.740528

>  <enum_code>
T

>  <enum_smi>
Cc1nn2c(c1C#N)NC1=CCCC1=C2O

>  <sha256>
39e1b0cb6462242f67993cb5678037f9b85a03408faf08abbd395fb60bce143b

>  <std_smi>
Cc1nn2c(O)c3c(nc2c1C#N)CCC3

>  <uuid>
22184636-3d38-48ca-83b4-132311d4184a

$$$$
22184636-3d38-48ca-83b4-132311d4184a
  rDOCK(R)          3D
libRbt.so/2013.1/901 2013/11/27
 18 20  0  0  0  0  0  0  0  0999 V2000
   -4.3066   28.5809    5.6044 C   0  0  0  0  0  0
   -3.3837   29.1598    4.5939 C   0  0  0  0  0  0
   -3.4405   30.4680    4.3051 N   0  0  0  0  0  0
   -2.4755   30.6537    3.3581 N   0  0  0  0  0  0
   -2.1366   31.8703    2.7248 C   0  0  0  0  0  0
   -2.8228   33.0248    3.0620 O   0  0  0  0  0  0
   -1.1528   31.8663    1.8099 C   0  0  0  0  0  0
   -0.4544   30.6317    1.4822 C   0  0  0  0  0  0
   -0.8181   29.4706    2.1242 N   0  0  0  0  0  0
   -1.8165   29.4551    3.0577 C   0  0  0  0  0  0
   -2.3894   28.4879    3.8438 C   0  0  0  0  0  0
   -2.0439   27.1089    3.8824 C   0  0  0  0  0  0
   -1.7636   25.9833    3.9155 N   0  0  0  0  0  0
    0.4755   30.8636    0.5560 C   0  0  0  0  0  0
    0.5088   32.3061    0.1481 C   0  0  0  0  0  0
   -0.5855   32.9803    0.9908 C   0  0  0  0  0  0
   -2.2792   33.7601    2.7081 H   0  0  0  0  0  0
   -0.2989   28.6370    1.8586 H   0  0  0  0  0  0
  1  2  1  0  0  0
  2  3  2  0  0  0
  3  4  1  0  0  0
  4  5  1  0  0  0
  5  6  1  0  0  0
  5  7  2  0  0  0
  7  8  1  0  0  0
  8  9  1  0  0  0
  9 10  1  0  0  0
 10 11  2  0  0  0
 11 12  1  0  0  0
 12 13  3  0  0  0
  8 14  2  0  0  0
 14 15  1  0  0  0
 15 16  1  0  0  0
 11  2  1  0  0  0
 10  4  1  0  0  0
 16  7  1  0  0  0
  6 17  1  0  0  0
  9 18  1  0  0  0
M  END
>  <CHROM.0>
-59.88758699,68.87758797

>  <CHROM.1>
164.83871469,-1.80696307,30.23271047,2.84732835,2.16347107,-0.73413892,2.88762506

>  <Name>
22184636-3d38-48ca-83b4-132311d4184a

>  <RI>
1.07615e+07

>  <Rbt.Current_Directory>
/data/work/jku/5V6S/work/40/8dba899c20c42488f2b1a17844994e

>  <Rbt.Executable>
rbdock ($Id: //depot/dev/client3/rdock/2013.1/src/exe/rbdock.cxx#4 $)

>  <Rbt.Library>
libRbt.so (2013.1, Build901 2013/11/27)

>  <Rbt.Parameter_File>
/rDock_2013.1_src/data/scripts/dock.prm

>  <Rbt.Receptor>
docking.prm

>  <SCORE>
-7.73306

>  <SCORE.INTER>
-7.54246

>  <SCORE.INTER.CONST>
1

>  <SCORE.INTER.POLAR>
0

>  <SCORE.INTER.REPUL>
0.00295801

>  <SCORE.INTER.ROT>
0

>  <SCORE.INTER.VDW>
-12.9573

>  <SCORE.INTER.norm>
-0.471404

>  <SCORE.INTRA>
1.32307

>  <SCORE.INTRA.DIHEDRAL>
0.328402

>  <SCORE.INTRA.DIHEDRAL.0>
1.92105e-08

>  <SCORE.INTRA.POLAR>
0.1779

>  <SCORE.INTRA.POLAR.0>
-0.1779

>  <SCORE.INTRA.REPUL>
0

>  <SCORE.INTRA.REPUL.0>
0

>  <SCORE.INTRA.VDW>
0.554006

>  <SCORE.INTRA.VDW.0>
-0.0720878

>  <SCORE.INTRA.norm>
0.0826917

>  <SCORE.RESTR>
0

>  <SCORE.RESTR.CAVITY>
0

>  <SCORE.RESTR.norm>
0

>  <SCORE.SYSTEM>
-1.51366

>  <SCORE.SYSTEM.CONST>
0

>  <SCORE.SYSTEM.DIHEDRAL>
0.389598

>  <SCORE.SYSTEM.POLAR>
-0.502905

>  <SCORE.SYSTEM.VDW>
0.00141411

>  <SCORE.SYSTEM.norm>
-0.094604

>  <SCORE.heavy>
16

>  <SCORE.norm>
-0.483316

>  <enum_code>
T

>  <enum_smi>
Cc1nn2c(c1C#N)NC1=CCCC1=C2O

>  <sha256>
39e1b0cb6462242f67993cb5678037f9b85a03408faf08abbd395fb60bce143b

>  <std_smi>
Cc1nn2c(O)c3c(nc2c1C#N)CCC3

>  <uuid>
22184636-3d38-48ca-83b4-132311d4184a

$$$$
22184636-3d38-48ca-83b4-132311d4184a
  rDOCK(R)          3D
libRbt.so/2013.1/901 2013/11/27
 18 20  0  0  0  0  0  0  0  0999 V2000
   -2.9106   29.9067    6.5938 C   0  0  0  0  0  0
   -2.2524   30.2421    5.3044 C   0  0  0  0  0  0
   -1.8705   31.5030    5.0544 N   0  0  0  0  0  0
   -1.3142   31.4536    3.8092 N   0  0  0  0  0  0
   -0.7568   32.5342    3.0896 C   0  0  0  0  0  0
   -0.7479   33.7962    3.6596 O   0  0  0  0  0  0
   -0.2505   32.2996    1.8675 C   0  0  0  0  0  0
   -0.2783   30.9583    1.3020 C   0  0  0  0  0  0
   -0.8310   29.9365    2.0388 N   0  0  0  0  0  0
   -1.3510   30.1559    3.2837 C   0  0  0  0  0  0
   -1.9506   29.3682    4.2331 C   0  0  0  0  0  0
   -2.2059   27.9721    4.1417 C   0  0  0  0  0  0
   -2.4151   26.8330    4.0692 N   0  0  0  0  0  0
    0.2744   30.9612    0.0891 C   0  0  0  0  0  0
    0.7451   32.3290   -0.3059 C   0  0  0  0  0  0
    0.3924   33.2287    0.8892 C   0  0  0  0  0  0
   -1.3379   33.7303    4.4401 H   0  0  0  0  0  0
   -0.8252   29.0198    1.5977 H   0  0  0  0  0  0
  1  2  1  0  0  0
  2  3  2  0  0  0
  3  4  1  0  0  0
  4  5  1  0  0  0
  5  6  1  0  0  0
  5  7  2  0  0  0
  7  8  1  0  0  0
  8  9  1  0  0  0
  9 10  1  0  0  0
 10 11  2  0  0  0
 11 12  1  0  0  0
 12 13  3  0  0  0
  8 14  2  0  0  0
 14 15  1  0  0  0
 15 16  1  0  0  0
 11  2  1  0  0  0
 10  4  1  0  0  0
 16  7  1  0  0  0
  6 17  1  0  0  0
  9 18  1  0  0  0
M  END
>  <CHROM.0>
-59.88758699,68.60895104

>  <CHROM.1>
-12.02857129,-1.10677254,30.89225583,3.08897279,2.90988354,-1.10502737,-2.70738231

>  <Name>
22184636-3d38-48ca-83b4-132311d4184a

>  <RI>
1.07615e+07

>  <Rbt.Current_Directory>
/data/work/jku/5V6S/work/40/8dba899c20c42488f2b1a17844994e

>  <Rbt.Executable>
rbdock ($Id: //depot/dev/client3/rdock/2013.1/src/exe/rbdock.cxx#4 $)

>  <Rbt.Library>
libRbt.so (2013.1, Build901 2013/11/27)

>  <Rbt.Parameter_File>
/rDock_2013.1_src/data/scripts/dock.prm

>  <Rbt.Receptor>
docking.prm

>  <SCORE>
-11.6953

>  <SCORE.INTER>
-10.3979

>  <SCORE.INTER.CONST>
1

>  <SCORE.INTER.POLAR>
-0.827614

>  <SCORE.INTER.REPUL>
0.512463

>  <SCORE.INTER.ROT>
0

>  <SCORE.INTER.VDW>
-15.5463

>  <SCORE.INTER.norm>
-0.649869

>  <SCORE.INTRA>
0.214227

>  <SCORE.INTRA.DIHEDRAL>
0.208525

>  <SCORE.INTRA.DIHEDRAL.0>
1.92105e-08

>  <SCORE.INTRA.POLAR>
0.0361836

>  <SCORE.INTRA.POLAR.0>
-0.1779

>  <SCORE.INTRA.REPUL>
0

>  <SCORE.INTRA.REPUL.0>
0

>  <SCORE.INTRA.VDW>
-0.0130601

>  <SCORE.INTRA.VDW.0>
-0.0720878

>  <SCORE.INTRA.norm>
0.0133892

>  <SCORE.RESTR>
0.00163713

>  <SCORE.RESTR.CAVITY>
0.00163713

>  <SCORE.RESTR.norm>
0.00010232

>  <SCORE.SYSTEM>
-1.51324

>  <SCORE.SYSTEM.CONST>
0

>  <SCORE.SYSTEM.DIHEDRAL>
0.367218

>  <SCORE.SYSTEM.POLAR>
-0.502685

>  <SCORE.SYSTEM.VDW>
0.0122795

>  <SCORE.SYSTEM.norm>
-0.0945775

>  <SCORE.heavy>
16

>  <SCORE.norm>
-0.730955

>  <enum_code>
T

>  <enum_smi>
Cc1nn2c(c1C#N)NC1=CCCC1=C2O

>  <sha256>
39e1b0cb6462242f67993cb5678037f9b85a03408faf08abbd395fb60bce143b

>  <std_smi>
Cc1nn2c(O)c3c(nc2c1C#N)CCC3

>  <uuid>
22184636-3d38-48ca-83b4-132311d4184a

$$$$
5a453c67-ed0c-4fc5-838a-159bc7bcaaa5
  rDOCK(R)          3D
libRbt.so/2013.1/901 2013/11/27
 17 19  0  0  0  0  0  0  0  0999 V2000
   -0.4006   24.9439    6.0886 C   0  0  0  0  0  0
   -1.8311   25.0899    5.7152 C   0  0  0  0  0  0
   -2.4489   26.2677    5.8740 N   0  0  0  0  0  0
   -3.7252   26.0448    5.4551 N   0  0  0  0  0  0
   -4.7111   27.0487    5.4792 C   0  0  0  0  0  0
   -4.4422   28.2055    5.7837 O   0  0  0  0  0  0
   -6.1028   26.5056    5.2150 C   0  0  0  0  0  0
   -6.1070   25.2818    4.3324 C   0  0  0  0  0  0
   -5.0902   24.3767    4.4565 N   0  0  0  0  0  0
   -3.9002   24.7461    4.9955 C   0  0  0  0  0  0
   -2.6928   24.1119    5.1661 C   0  0  0  0  0  0
   -2.3858   22.7629    4.8336 C   0  0  0  0  0  0
   -2.1399   21.6635    4.5555 N   0  0  0  0  0  0
   -7.1510   25.2895    3.4997 C   0  0  0  0  0  0
   -7.9539   26.5431    3.6457 C   0  0  0  0  0  0
   -7.0130   27.4547    4.4391 C   0  0  0  0  0  0
   -5.1798   23.5302    3.8920 H   0  0  0  0  0  0
  1  2  1  0  0  0
  2  3  2  0  0  0
  3  4  1  0  0  0
  4  5  1  0  0  0
  5  6  2  0  0  0
  5  7  1  0  0  0
  7  8  1  0  0  0
  8  9  1  0  0  0
  9 10  1  0  0  0
 10 11  2  0  0  0
 11 12  1  0  0  0
 12 13  3  0  0  0
  8 14  2  0  0  0
 14 15  1  0  0  0
 15 16  1  0  0  0
 11  2  1  0  0  0
 10  4  1  0  0  0
 16  7  1  0  0  0
  9 17  1  0  0  0
M  END
>  <CHROM.0>
-59.88758699,68.77060191

>  <CHROM.1>
-4.25870673,25.43796151,4.97777760,-0.40753493,-0.35186750,0.32186320

>  <Name>
5a453c67-ed0c-4fc5-838a-159bc7bcaaa5

>  <RI>
1.10236e+07

>  <Rbt.Current_Directory>
/data/work/jku/5V6S/work/40/8dba899c20c42488f2b1a17844994e

>  <Rbt.Executable>
rbdock ($Id: //depot/dev/client3/rdock/2013.1/src/exe/rbdock.cxx#4 $)

>  <Rbt.Library>
libRbt.so (2013.1, Build901 2013/11/27)

>  <Rbt.Parameter_File>
/rDock_2013.1_src/data/scripts/dock.prm

>  <Rbt.Receptor>
docking.prm

>  <SCORE>
-12.6343

>  <SCORE.INTER>
-11.1207

>  <SCORE.INTER.CONST>
1

>  <SCORE.INTER.POLAR>
-0.0390041

>  <SCORE.INTER.REPUL>
0

>  <SCORE.INTER.ROT>
0

>  <SCORE.INTER.VDW>
-16.3881

>  <SCORE.INTER.norm>
-0.695042

>  <SCORE.INTRA>
0

>  <SCORE.INTRA.DIHEDRAL>
0

>  <SCORE.INTRA.DIHEDRAL.0>
0

>  <SCORE.INTRA.POLAR>
0

>  <SCORE.INTRA.POLAR.0>
0

>  <SCORE.INTRA.REPUL>
0

>  <SCORE.INTRA.REPUL.0>
0

>  <SCORE.INTRA.VDW>
0

>  <SCORE.INTRA.VDW.0>
0

>  <SCORE.INTRA.norm>
0

>  <SCORE.RESTR>
0

>  <SCORE.RESTR.CAVITY>
0

>  <SCORE.RESTR.norm>
0

>  <SCORE.SYSTEM>
-1.51358

>  <SCORE.SYSTEM.CONST>
0

>  <SCORE.SYSTEM.DIHEDRAL>
0.380609

>  <SCORE.SYSTEM.POLAR>
-0.502824

>  <SCORE.SYSTEM.VDW>
0.00572139

>  <SCORE.SYSTEM.norm>
-0.0945986

>  <SCORE.heavy>
16

>  <SCORE.norm>
-0.789641

>  <enum_code>
T

>  <enum_smi>
Cc1nn2c(c1C#N)NC1=CCCC1C2=O

>  <sha256>
39e1b0cb6462242f67993cb5678037f9b85a03408faf08abbd395fb60bce143b

>  <std_smi>
Cc1nn2c(O)c3c(nc2c1C#N)CCC3

>  <uuid>
5a453c67-ed0c-4fc5-838a-159bc7bcaaa5

$$$$
5a453c67-ed0c-4fc5-838a-159bc7bcaaa5
  rDOCK(R)          3D
libRbt.so/2013.1/901 2013/11/27
 17 19  0  0  0  0  0  0  0  0999 V2000
   -7.8734   26.8112    4.1388 C   0  0  0  0  0  0
   -6.5072   26.4326    4.5831 C   0  0  0  0  0  0
   -5.9916   25.2477    4.2307 N   0  0  0  0  0  0
   -4.7587   25.2246    4.8083 N   0  0  0  0  0  0
   -3.8910   24.1236    4.6857 C   0  0  0  0  0  0
   -4.1622   23.1694    3.9651 O   0  0  0  0  0  0
   -2.6969   24.2159    5.6168 C   0  0  0  0  0  0
   -2.2876   25.6359    5.9217 C   0  0  0  0  0  0
   -3.2593   26.5890    6.0465 N   0  0  0  0  0  0
   -4.4819   26.4049    5.4856 C   0  0  0  0  0  0
   -5.6021   27.1914    5.3613 C   0  0  0  0  0  0
   -5.7865   28.4994    5.8904 C   0  0  0  0  0  0
   -5.9291   29.5678    6.3198 N   0  0  0  0  0  0
   -0.9594   25.7504    5.9991 C   0  0  0  0  0  0
   -0.2825   24.4536    5.6869 C   0  0  0  0  0  0
   -1.4060   23.6334    5.0460 C   0  0  0  0  0  0
   -2.9364   27.5162    6.3281 H   0  0  0  0  0  0
  1  2  1  0  0  0
  2  3  2  0  0  0
  3  4  1  0  0  0
  4  5  1  0  0  0
  5  6  2  0  0  0
  5  7  1  0  0  0
  7  8  1  0  0  0
  8  9  1  0  0  0
  9 10  1  0  0  0
 10 11  2  0  0  0
 11 12  1  0  0  0
 12 13  3  0  0  0
  8 14  2  0  0  0
 14 15  1  0  0  0
 15 16  1  0  0  0
 11  2  1  0  0  0
 10  4  1  0  0  0
 16  7  1  0  0  0
  9 17  1  0  0  0
M  END
>  <CHROM.0>
-59.88758699,68.28070672

>  <CHROM.1>
-4.11470808,25.77303022,5.21466756,2.63928361,-0.31046842,0.42730692

>  <Name>
5a453c67-ed0c-4fc5-838a-159bc7bcaaa5

>  <RI>
1.10236e+07

>  <Rbt.Current_Directory>
/data/work/jku/5V6S/work/40/8dba899c20c42488f2b1a17844994e

>  <Rbt.Executable>
rbdock ($Id: //depot/dev/client3/rdock/2013.1/src/exe/rbdock.cxx#4 $)

>  <Rbt.Library>
libRbt.so (2013.1, Build901 2013/11/27)

>  <Rbt.Parameter_File>
/rDock_2013.1_src/data/scripts/dock.prm

>  <Rbt.Receptor>
docking.prm

>  <SCORE>
-13.3927

>  <SCORE.INTER>
-11.881

>  <SCORE.INTER.CONST>
1

>  <SCORE.INTER.POLAR>
0

>  <SCORE.INTER.REPUL>
0.000736225

>  <SCORE.INTER.ROT>
0

>  <SCORE.INTER.VDW>
-17.2846

>  <SCORE.INTER.norm>
-0.74256

>  <SCORE.INTRA>
0

>  <SCORE.INTRA.DIHEDRAL>
0

>  <SCORE.INTRA.DIHEDRAL.0>
0

>  <SCORE.INTRA.POLAR>
0

>  <SCORE.INTRA.POLAR.0>
0

>  <SCORE.INTRA.REPUL>
0

>  <SCORE.INTRA.REPUL.0>
0

>  <SCORE.INTRA.VDW>
0

>  <SCORE.INTRA.VDW.0>
0

>  <SCORE.INTRA.norm>
0

>  <SCORE.RESTR>
0

>  <SCORE.RESTR.CAVITY>
0

>  <SCORE.RESTR.norm>
0

>  <SCORE.SYSTEM>
-1.51179

>  <SCORE.SYSTEM.CONST>
0

>  <SCORE.SYSTEM.DIHEDRAL>
0.340743

>  <SCORE.SYSTEM.POLAR>
-0.502336

>  <SCORE.SYSTEM.VDW>
0.0257831

>  <SCORE.SYSTEM.norm>
-0.0944867

>  <SCORE.heavy>
16

>  <SCORE.norm>
-0.837046

>  <enum_code>
T

>  <enum_smi>
Cc1nn2c(c1C#N)NC1=CCCC1C2=O

>  <sha256>
39e1b0cb6462242f67993cb5678037f9b85a03408faf08abbd395fb60bce143b

>  <std_smi>
Cc1nn2c(O)c3c(nc2c1C#N)CCC3

>  <uuid>
5a453c67-ed0c-4fc5-838a-159bc7bcaaa5

$$$$
5a453c67-ed0c-4fc5-838a-159bc7bcaaa5
  rDOCK(R)          3D
libRbt.so/2013.1/901 2013/11/27
 17 19  0  0  0  0  0  0  0  0999 V2000
   -2.5218   21.2869    4.1630 C   0  0  0  0  0  0
   -3.3472   22.5220    4.1886 C   0  0  0  0  0  0
   -4.4469   22.6096    3.4290 N   0  0  0  0  0  0
   -4.9405   23.8531    3.6821 N   0  0  0  0  0  0
   -6.1013   24.3437    3.0558 C   0  0  0  0  0  0
   -6.7852   23.6350    2.3256 O   0  0  0  0  0  0
   -6.3089   25.8276    3.2930 C   0  0  0  0  0  0
   -5.7431   26.3056    4.6076 C   0  0  0  0  0  0
   -4.5806   25.7508    5.0650 N   0  0  0  0  0  0
   -4.1804   24.5295    4.6272 C   0  0  0  0  0  0
   -3.1421   23.6916    4.9569 C   0  0  0  0  0  0
   -2.1024   23.9525    5.8927 C   0  0  0  0  0  0
   -1.2601   24.1687    6.6608 N   0  0  0  0  0  0
   -6.5284   27.2312    5.1643 C   0  0  0  0  0  0
   -7.7639   27.4564    4.3517 C   0  0  0  0  0  0
   -7.7720   26.2486    3.4100 C   0  0  0  0  0  0
   -4.2000   26.1618    5.9191 H   0  0  0  0  0  0
  1  2  1  0  0  0
  2  3  2  0  0  0
  3  4  1  0  0  0
  4  5  1  0  0  0
  5  6  2  0  0  0
  5  7  1  0  0  0
  7  8  1  0  0  0
  8  9  1  0  0  0
  9 10  1  0  0  0
 10 11  2  0  0  0
 11 12  1  0  0  0
 12 13  3  0  0  0
  8 14  2  0  0  0
 14 15  1  0  0  0
 15 16  1  0  0  0
 11  2  1  0  0  0
 10  4  1  0  0  0
 16  7  1  0  0  0
  9 17  1  0  0  0
M  END
>  <CHROM.0>
-59.88758699,69.21278612

>  <CHROM.1>
-4.87670465,24.57386923,4.27971731,0.39569251,0.55400544,-2.56835498

>  <Name>
5a453c67-ed0c-4fc5-838a-159bc7bcaaa5

>  <RI>
1.10236e+07

>  <Rbt.Current_Directory>
/data/work/jku/5V6S/work/40/8dba899c20c42488f2b1a17844994e

>  <Rbt.Executable>
rbdock ($Id: //depot/dev/client3/rdock/2013.1/src/exe/rbdock.cxx#4 $)

>  <Rbt.Library>
libRbt.so (2013.1, Build901 2013/11/27)

>  <Rbt.Parameter_File>
/rDock_2013.1_src/data/scripts/dock.prm

>  <Rbt.Receptor>
docking.prm

>  <SCORE>
-12.2183

>  <SCORE.INTER>
-10.7051

>  <SCORE.INTER.CONST>
1

>  <SCORE.INTER.POLAR>
0

>  <SCORE.INTER.REPUL>
0

>  <SCORE.INTER.ROT>
0

>  <SCORE.INTER.VDW>
-16.1051

>  <SCORE.INTER.norm>
-0.669069

>  <SCORE.INTRA>
0

>  <SCORE.INTRA.DIHEDRAL>
0

>  <SCORE.INTRA.DIHEDRAL.0>
0

>  <SCORE.INTRA.POLAR>
0

>  <SCORE.INTRA.POLAR.0>
0

>  <SCORE.INTRA.REPUL>
0

>  <SCORE.INTRA.REPUL.0>
0

>  <SCORE.INTRA.VDW>
0

>  <SCORE.INTRA.VDW.0>
0

>  <SCORE.INTRA.norm>
0

>  <SCORE.RESTR>
0

>  <SCORE.RESTR.CAVITY>
0

>  <SCORE.RESTR.norm>
0

>  <SCORE.SYSTEM>
-1.51324

>  <SCORE.SYSTEM.CONST>
0

>  <SCORE.SYSTEM.DIHEDRAL>
0.418416

>  <SCORE.SYSTEM.POLAR>
-0.503098

>  <SCORE.SYSTEM.VDW>
-0.0119116

>  <SCORE.SYSTEM.norm>
-0.0945772

>  <SCORE.heavy>
16

>  <SCORE.norm>
-0.763646

>  <enum_code>
T

>  <enum_smi>
Cc1nn2c(c1C#N)NC1=CCCC1C2=O

>  <sha256>
39e1b0cb6462242f67993cb5678037f9b85a03408faf08abbd395fb60bce143b

>  <std_smi>
Cc1nn2c(O)c3c(nc2c1C#N)CCC3

>  <uuid>
5a453c67-ed0c-4fc5-838a-159bc7bcaaa5

$$$$
5a453c67-ed0c-4fc5-838a-159bc7bcaaa5
  rDOCK(R)          3D
libRbt.so/2013.1/901 2013/11/27
 17 19  0  0  0  0  0  0  0  0999 V2000
   -0.4157   24.9146    6.1490 C   0  0  0  0  0  0
   -1.8410   25.0588    5.7553 C   0  0  0  0  0  0
   -2.4678   26.2307    5.9221 N   0  0  0  0  0  0
   -3.7361   26.0075    5.4798 N   0  0  0  0  0  0
   -4.7278   27.0056    5.5035 C   0  0  0  0  0  0
   -4.4701   28.1591    5.8297 O   0  0  0  0  0  0
   -6.1121   26.4593    5.2092 C   0  0  0  0  0  0
   -6.0956   25.2490    4.3081 C   0  0  0  0  0  0
   -5.0759   24.3475    4.4346 N   0  0  0  0  0  0
   -3.8965   24.7150    4.9978 C   0  0  0  0  0  0
   -2.6885   24.0847    5.1779 C   0  0  0  0  0  0
   -2.3689   22.7425    4.8298 C   0  0  0  0  0  0
   -2.1125   21.6489    4.5391 N   0  0  0  0  0  0
   -7.1264   25.2639    3.4593 C   0  0  0  0  0  0
   -7.9384   26.5109    3.6116 C   0  0  0  0  0  0
   -7.0152   27.4153    4.4334 C   0  0  0  0  0  0
   -5.1519   23.5093    3.8560 H   0  0  0  0  0  0
  1  2  1  0  0  0
  2  3  2  0  0  0
  3  4  1  0  0  0
  4  5  1  0  0  0
  5  6  2  0  0  0
  5  7  1  0  0  0
  7  8  1  0  0  0
  8  9  1  0  0  0
  9 10  1  0  0  0
 10 11  2  0  0  0
 11 12  1  0  0  0
 12 13  3  0  0  0
  8 14  2  0  0  0
 14 15  1  0  0  0
 15 16  1  0  0  0
 11  2  1  0  0  0
 10  4  1  0  0  0
 16  7  1  0  0  0
  9 17  1  0  0  0
M  END
>  <CHROM.0>
-59.88758699,68.68332681

>  <CHROM.1>
-4.25859386,25.40514652,4.98496464,-0.39658770,-0.36500775,0.34089623

>  <Name>
5a453c67-ed0c-4fc5-838a-159bc7bcaaa5

>  <RI>
1.10236e+07

>  <Rbt.Current_Directory>
/data/work/jku/5V6S/work/40/8dba899c20c42488f2b1a17844994e

>  <Rbt.Executable>
rbdock ($Id: //depot/dev/client3/rdock/2013.1/src/exe/rbdock.cxx#4 $)

>  <Rbt.Library>
libRbt.so (2013.1, Build901 2013/11/27)

>  <Rbt.Parameter_File>
/rDock_2013.1_src/data/scripts/dock.prm

>  <Rbt.Receptor>
docking.prm

>  <SCORE>
-12.6441

>  <SCORE.INTER>
-11.1307

>  <SCORE.INTER.CONST>
1

>  <SCORE.INTER.POLAR>
-0.0424946

>  <SCORE.INTER.REPUL>
0

>  <SCORE.INTER.ROT>
0

>  <SCORE.INTER.VDW>
-16.3862

>  <SCORE.INTER.norm>
-0.695666

>  <SCORE.INTRA>
0

>  <SCORE.INTRA.DIHEDRAL>
0

>  <SCORE.INTRA.DIHEDRAL.0>
0

>  <SCORE.INTRA.POLAR>
0

>  <SCORE.INTRA.POLAR.0>
0

>  <SCORE.INTRA.REPUL>
0

>  <SCORE.INTRA.REPUL.0>
0

>  <SCORE.INTRA.VDW>
0

>  <SCORE.INTRA.VDW.0>
0

>  <SCORE.INTRA.norm>
0

>  <SCORE.RESTR>
0

>  <SCORE.RESTR.CAVITY>
0

>  <SCORE.RESTR.norm>
0

>  <SCORE.SYSTEM>
-1.51343

>  <SCORE.SYSTEM.CONST>
0

>  <SCORE.SYSTEM.DIHEDRAL>
0.373351

>  <SCORE.SYSTEM.POLAR>
-0.502752

>  <SCORE.SYSTEM.VDW>
0.00925463

>  <SCORE.SYSTEM.norm>
-0.0945891

>  <SCORE.heavy>
16

>  <SCORE.norm>
-0.790256

>  <enum_code>
T

>  <enum_smi>
Cc1nn2c(c1C#N)NC1=CCCC1C2=O

>  <sha256>
39e1b0cb6462242f67993cb5678037f9b85a03408faf08abbd395fb60bce143b

>  <std_smi>
Cc1nn2c(O)c3c(nc2c1C#N)CCC3

>  <uuid>
5a453c67-ed0c-4fc5-838a-159bc7bcaaa5

$$$$
5a453c67-ed0c-4fc5-838a-159bc7bcaaa5
  rDOCK(R)          3D
libRbt.so/2013.1/901 2013/11/27
 17 19  0  0  0  0  0  0  0  0999 V2000
   -7.8638   26.7728    4.1188 C   0  0  0  0  0  0
   -6.4962   26.4033    4.5665 C   0  0  0  0  0  0
   -5.9762   25.2172    4.2247 N   0  0  0  0  0  0
   -4.7432   25.2039    4.8024 N   0  0  0  0  0  0
   -3.8714   24.1051    4.6897 C   0  0  0  0  0  0
   -4.1391   23.1434    3.9778 O   0  0  0  0  0  0
   -2.6776   24.2102    5.6198 C   0  0  0  0  0  0
   -2.2736   25.6344    5.9119 C   0  0  0  0  0  0
   -3.2489   26.5851    6.0281 N   0  0  0  0  0  0
   -4.4708   26.3913    5.4690 C   0  0  0  0  0  0
   -5.5939   27.1725    5.3377 C   0  0  0  0  0  0
   -5.7831   28.4845    5.8550 C   0  0  0  0  0  0
   -5.9297   29.5562    6.2747 N   0  0  0  0  0  0
   -0.9458   25.7547    5.9881 C   0  0  0  0  0  0
   -0.2641   24.4576    5.6876 C   0  0  0  0  0  0
   -1.3846   23.6274    5.0542 C   0  0  0  0  0  0
   -2.9293   27.5159    6.3013 H   0  0  0  0  0  0
  1  2  1  0  0  0
  2  3  2  0  0  0
  3  4  1  0  0  0
  4  5  1  0  0  0
  5  6  2  0  0  0
  5  7  1  0  0  0
  7  8  1  0  0  0
  8  9  1  0  0  0
  9 10  1  0  0  0
 10 11  2  0  0  0
 11 12  1  0  0  0
 12 13  3  0  0  0
  8 14  2  0  0  0
 14 15  1  0  0  0
 15 16  1  0  0  0
 11  2  1  0  0  0
 10  4  1  0  0  0
 16  7  1  0  0  0
  9 17  1  0  0  0
M  END
>  <CHROM.0>
-59.88758699,68.80677253

>  <CHROM.1>
-4.10122145,25.75838968,5.20376665,2.64282350,-0.30887626,0.41934827

>  <Name>
5a453c67-ed0c-4fc5-838a-159bc7bcaaa5

>  <RI>
1.10236e+07

>  <Rbt.Current_Directory>
/data/work/jku/5V6S/work/40/8dba899c20c42488f2b1a17844994e

>  <Rbt.Executable>
rbdock ($Id: //depot/dev/client3/rdock/2013.1/src/exe/rbdock.cxx#4 $)

>  <Rbt.Library>
libRbt.so (2013.1, Build901 2013/11/27)

>  <Rbt.Parameter_File>
/rDock_2013.1_src/data/scripts/dock.prm

>  <Rbt.Receptor>
docking.prm

>  <SCORE>
-13.396

>  <SCORE.INTER>
-11.8824

>  <SCORE.INTER.CONST>
1

>  <SCORE.INTER.POLAR>
0

>  <SCORE.INTER.REPUL>
0

>  <SCORE.INTER.ROT>
0

>  <SCORE.INTER.VDW>
-17.2824

>  <SCORE.INTER.norm>
-0.742652

>  <SCORE.INTRA>
0

>  <SCORE.INTRA.DIHEDRAL>
0

>  <SCORE.INTRA.DIHEDRAL.0>
0

>  <SCORE.INTRA.POLAR>
0

>  <SCORE.INTRA.POLAR.0>
0

>  <SCORE.INTRA.REPUL>
0

>  <SCORE.INTRA.REPUL.0>
0

>  <SCORE.INTRA.VDW>
0

>  <SCORE.INTRA.VDW.0>
0

>  <SCORE.INTRA.norm>
0

>  <SCORE.RESTR>
0

>  <SCORE.RESTR.CAVITY>
0

>  <SCORE.RESTR.norm>
0

>  <SCORE.SYSTEM>
-1.51362

>  <SCORE.SYSTEM.CONST>
0

>  <SCORE.SYSTEM.DIHEDRAL>
0.383637

>  <SCORE.SYSTEM.POLAR>
-0.502853

>  <SCORE.SYSTEM.VDW>
0.00426221

>  <SCORE.SYSTEM.norm>
-0.0946012

>  <SCORE.heavy>
16

>  <SCORE.norm>
-0.837253

>  <enum_code>
T

>  <enum_smi>
Cc1nn2c(c1C#N)NC1=CCCC1C2=O

>  <sha256>
39e1b0cb6462242f67993cb5678037f9b85a03408faf08abbd395fb60bce143b

>  <std_smi>
Cc1nn2c(O)c3c(nc2c1C#N)CCC3

>  <uuid>
5a453c67-ed0c-4fc5-838a-159bc7bcaaa5

$$$$
aaefe786-9e4a-4599-b2d7-5ade249e68dc
  rDOCK(R)          3D
libRbt.so/2013.1/901 2013/11/27
 17 19  0  0  0  0  0  0  0  0999 V2000
   -2.0765   28.6384    6.0894 C   0  0  0  0  0  0
   -2.1311   27.2495    5.5637 C   0  0  0  0  0  0
   -0.9784   26.6248    5.2196 N   0  0  0  0  0  0
   -1.2967   25.3500    4.7595 N   0  0  0  0  0  0
   -0.5049   24.2636    4.2622 C   0  0  0  0  0  0
    0.7336   24.4687    4.2158 O   0  5  0  0  0  0
   -1.1543   23.1396    3.8860 C   0  0  0  0  0  0
   -2.6133   22.9755    3.9921 C   0  0  0  0  0  0
   -3.4248   23.8745    4.4032 N   0  3  0  0  0  0
   -2.7747   25.1199    4.8110 C   0  0  0  0  0  0
   -3.2944   26.4344    5.3604 C   0  0  0  0  0  0
   -4.6577   26.7158    5.5960 C   0  0  0  0  0  0
   -5.7988   26.8422    5.7526 N   0  0  0  0  0  0
   -3.0813   21.6336    3.5605 C   0  0  0  0  0  0
   -1.7628   20.8510    3.6286 C   0  0  0  0  0  0
   -0.6295   21.8473    3.3349 C   0  0  0  0  0  0
   -4.4322   23.7605    4.4711 H   0  0  0  0  0  0
  1  2  1  0  0  0
  2  3  2  0  0  0
  3  4  1  0  0  0
  4  5  1  0  0  0
  5  6  1  0  0  0
  5  7  2  0  0  0
  7  8  1  0  0  0
  8  9  2  0  0  0
  9 10  1  0  0  0
 10 11  2  0  0  0
 11 12  1  0  0  0
 12 13  3  0  0  0
  8 14  1  0  0  0
 14 15  1  0  0  0
 15 16  1  0  0  0
 11  2  1  0  0  0
 10  4  1  0  0  0
 16  7  1  0  0  0
  9 17  1  0  0  0
M  END
>  <CHROM.0>
-59.88758699,68.60489300

>  <CHROM.1>
-2.18244234,24.73765613,4.64544491,-1.89661774,-0.09804741,-2.80362283

>  <Name>
aaefe786-9e4a-4599-b2d7-5ade249e68dc

>  <RI>
3.11678e+07

>  <Rbt.Current_Directory>
/data/work/jku/5V6S/work/40/8dba899c20c42488f2b1a17844994e

>  <Rbt.Executable>
rbdock ($Id: //depot/dev/client3/rdock/2013.1/src/exe/rbdock.cxx#4 $)

>  <Rbt.Library>
libRbt.so (2013.1, Build901 2013/11/27)

>  <Rbt.Parameter_File>
/rDock_2013.1_src/data/scripts/dock.prm

>  <Rbt.Receptor>
docking.prm

>  <SCORE>
-11.9139

>  <SCORE.INTER>
-10.4007

>  <SCORE.INTER.CONST>
1

>  <SCORE.INTER.POLAR>
0

>  <SCORE.INTER.REPUL>
0

>  <SCORE.INTER.ROT>
0

>  <SCORE.INTER.VDW>
-15.8007

>  <SCORE.INTER.norm>
-0.650042

>  <SCORE.INTRA>
0

>  <SCORE.INTRA.DIHEDRAL>
0

>  <SCORE.INTRA.DIHEDRAL.0>
0

>  <SCORE.INTRA.POLAR>
0

>  <SCORE.INTRA.POLAR.0>
0

>  <SCORE.INTRA.REPUL>
0

>  <SCORE.INTRA.REPUL.0>
0

>  <SCORE.INTRA.VDW>
0

>  <SCORE.INTRA.VDW.0>
0

>  <SCORE.INTRA.norm>
0

>  <SCORE.RESTR>
0

>  <SCORE.RESTR.CAVITY>
0

>  <SCORE.RESTR.norm>
0

>  <SCORE.SYSTEM>
-1.51323

>  <SCORE.SYSTEM.CONST>
0

>  <SCORE.SYSTEM.DIHEDRAL>
0.366885

>  <SCORE.SYSTEM.POLAR>
-0.502681

>  <SCORE.SYSTEM.VDW>
0.012445

>  <SCORE.SYSTEM.norm>
-0.0945767

>  <SCORE.heavy>
16

>  <SCORE.norm>
-0.744619

>  <enum_code>
M

>  <enum_smi>
Cc1nn2c([O-])c3c([nH+]c2c1C#N)CCC3

>  <sha256>
39e1b0cb6462242f67993cb5678037f9b85a03408faf08abbd395fb60bce143b

>  <std_smi>
Cc1nn2c(O)c3c(nc2c1C#N)CCC3

>  <uuid>
aaefe786-9e4a-4599-b2d7-5ade249e68dc

$$$$
aaefe786-9e4a-4599-b2d7-5ade249e68dc
  rDOCK(R)          3D
libRbt.so/2013.1/901 2013/11/27
 17 19  0  0  0  0  0  0  0  0999 V2000
   -7.6908   24.1197    3.9269 C   0  0  0  0  0  0
   -6.2111   24.1624    4.0565 C   0  0  0  0  0  0
   -5.4747   23.1217    3.5961 N   0  0  0  0  0  0
   -4.1320   23.4013    3.8351 N   0  0  0  0  0  0
   -2.9213   22.6787    3.5768 C   0  0  0  0  0  0
   -3.0623   21.5589    3.0251 O   0  5  0  0  0  0
   -1.7584   23.2551    3.9535 C   0  0  0  0  0  0
   -1.6815   24.5852    4.5797 C   0  0  0  0  0  0
   -2.6883   25.3168    4.8743 N   0  3  0  0  0  0
   -3.9764   24.7331    4.5003 C   0  0  0  0  0  0
   -5.4112   25.2069    4.6296 C   0  0  0  0  0  0
   -5.7947   26.4373    5.2061 C   0  0  0  0  0  0
   -5.9995   27.4671    5.6959 N   0  0  0  0  0  0
   -0.2881   25.0188    4.8563 C   0  0  0  0  0  0
    0.4819   24.0644    3.9337 C   0  0  0  0  0  0
   -0.3441   22.7721    3.8282 C   0  0  0  0  0  0
   -2.6330   26.2326    5.3109 H   0  0  0  0  0  0
  1  2  1  0  0  0
  2  3  2  0  0  0
  3  4  1  0  0  0
  4  5  1  0  0  0
  5  6  1  0  0  0
  5  7  2  0  0  0
  7  8  1  0  0  0
  8  9  2  0  0  0
  9 10  1  0  0  0
 10 11  2  0  0  0
 11 12  1  0  0  0
 12 13  3  0  0  0
  8 14  1  0  0  0
 14 15  1  0  0  0
 15 16  1  0  0  0
 11  2  1  0  0  0
 10  4  1  0  0  0
 16  7  1  0  0  0
  9 17  1  0  0  0
M  END
>  <CHROM.0>
-59.88758699,68.85831281

>  <CHROM.1>
-3.54295431,24.21482928,4.23986706,2.84511220,-0.03914710,0.44543213

>  <Name>
aaefe786-9e4a-4599-b2d7-5ade249e68dc

>  <RI>
3.11678e+07

>  <Rbt.Current_Directory>
/data/work/jku/5V6S/work/40/8dba899c20c42488f2b1a17844994e

>  <Rbt.Executable>
rbdock ($Id: //depot/dev/client3/rdock/2013.1/src/exe/rbdock.cxx#4 $)

>  <Rbt.Library>
libRbt.so (2013.1, Build901 2013/11/27)

>  <Rbt.Parameter_File>
/rDock_2013.1_src/data/scripts/dock.prm

>  <Rbt.Receptor>
docking.prm

>  <SCORE>
-12.5129

>  <SCORE.INTER>
-10.9992

>  <SCORE.INTER.CONST>
1

>  <SCORE.INTER.POLAR>
0

>  <SCORE.INTER.REPUL>
0

>  <SCORE.INTER.ROT>
0

>  <SCORE.INTER.VDW>
-16.3992

>  <SCORE.INTER.norm>
-0.687452

>  <SCORE.INTRA>
0

>  <SCORE.INTRA.DIHEDRAL>
0

>  <SCORE.INTRA.DIHEDRAL.0>
0

>  <SCORE.INTRA.POLAR>
0

>  <SCORE.INTRA.POLAR.0>
0

>  <SCORE.INTRA.REPUL>
0

>  <SCORE.INTRA.REPUL.0>
0

>  <SCORE.INTRA.VDW>
0

>  <SCORE.INTRA.VDW.0>
0

>  <SCORE.INTRA.norm>
0

>  <SCORE.RESTR>
0

>  <SCORE.RESTR.CAVITY>
0

>  <SCORE.RESTR.norm>
0

>  <SCORE.SYSTEM>
-1.51366

>  <SCORE.SYSTEM.CONST>
0

>  <SCORE.SYSTEM.DIHEDRAL>
0.387971

>  <SCORE.SYSTEM.POLAR>
-0.502891

>  <SCORE.SYSTEM.VDW>
0.00218819

>  <SCORE.SYSTEM.norm>
-0.0946035

>  <SCORE.heavy>
16

>  <SCORE.norm>
-0.782056

>  <enum_code>
M

>  <enum_smi>
Cc1nn2c([O-])c3c([nH+]c2c1C#N)CCC3

>  <sha256>
39e1b0cb6462242f67993cb5678037f9b85a03408faf08abbd395fb60bce143b

>  <std_smi>
Cc1nn2c(O)c3c(nc2c1C#N)CCC3

>  <uuid>
aaefe786-9e4a-4599-b2d7-5ade249e68dc

$$$$
aaefe786-9e4a-4599-b2d7-5ade249e68dc
  rDOCK(R)          3D
libRbt.so/2013.1/901 2013/11/27
 17 19  0  0  0  0  0  0  0  0999 V2000
   -0.4815   24.7376    6.2315 C   0  0  0  0  0  0
   -1.8855   24.9399    5.7888 C   0  0  0  0  0  0
   -2.4576   26.1600    5.9345 N   0  0  0  0  0  0
   -3.7613   26.0882    5.4513 N   0  0  0  0  0  0
   -4.8236   27.0458    5.3569 C   0  0  0  0  0  0
   -4.5615   28.1949    5.7916 O   0  5  0  0  0  0
   -5.9943   26.6284    4.8261 C   0  0  0  0  0  0
   -6.2111   25.2628    4.3211 C   0  0  0  0  0  0
   -5.3492   24.3189    4.3646 N   0  3  0  0  0  0
   -4.0654   24.7132    4.9443 C   0  0  0  0  0  0
   -2.7656   23.9736    5.1962 C   0  0  0  0  0  0
   -2.5483   22.6148    4.8807 C   0  0  0  0  0  0
   -2.4759   21.4976    4.5823 N   0  0  0  0  0  0
   -7.5645   25.0640    3.7422 C   0  0  0  0  0  0
   -7.9794   26.5238    3.5135 C   0  0  0  0  0  0
   -7.2776   27.3677    4.5899 C   0  0  0  0  0  0
   -5.5029   23.3755    4.0197 H   0  0  0  0  0  0
  1  2  1  0  0  0
  2  3  2  0  0  0
  3  4  1  0  0  0
  4  5  1  0  0  0
  5  6  1  0  0  0
  5  7  2  0  0  0
  7  8  1  0  0  0
  8  9  2  0  0  0
  9 10  1  0  0  0
 10 11  2  0  0  0
 11 12  1  0  0  0
 12 13  3  0  0  0
  8 14  1  0  0  0
 14 15  1  0  0  0
 15 16  1  0  0  0
 11  2  1  0  0  0
 10  4  1  0  0  0
 16  7  1  0  0  0
  9 17  1  0  0  0
M  END
>  <CHROM.0>
-59.88758699,68.38680364

>  <CHROM.1>
-4.39921160,25.35501356,4.97374566,-0.40522707,-0.35810347,0.29038487

>  <Name>
aaefe786-9e4a-4599-b2d7-5ade249e68dc

>  <RI>
3.11678e+07

>  <Rbt.Current_Directory>
/data/work/jku/5V6S/work/40/8dba899c20c42488f2b1a17844994e

>  <Rbt.Executable>
rbdock ($Id: //depot/dev/client3/rdock/2013.1/src/exe/rbdock.cxx#4 $)

>  <Rbt.Library>
libRbt.so (2013.1, Build901 2013/11/27)

>  <Rbt.Parameter_File>
/rDock_2013.1_src/data/scripts/dock.prm

>  <Rbt.Receptor>
docking.prm

>  <SCORE>
-12.4107

>  <SCORE.INTER>
-10.8984

>  <SCORE.INTER.CONST>
1

>  <SCORE.INTER.POLAR>
0

>  <SCORE.INTER.REPUL>
0

>  <SCORE.INTER.ROT>
0

>  <SCORE.INTER.VDW>
-16.2984

>  <SCORE.INTER.norm>
-0.681148

>  <SCORE.INTRA>
0

>  <SCORE.INTRA.DIHEDRAL>
0

>  <SCORE.INTRA.DIHEDRAL.0>
0

>  <SCORE.INTRA.POLAR>
0

>  <SCORE.INTRA.POLAR.0>
0

>  <SCORE.INTRA.REPUL>
0

>  <SCORE.INTRA.REPUL.0>
0

>  <SCORE.INTRA.VDW>
0

>  <SCORE.INTRA.VDW.0>
0

>  <SCORE.INTRA.norm>
0

>  <SCORE.RESTR>
0

>  <SCORE.RESTR.CAVITY>
0

>  <SCORE.RESTR.norm>
0

>  <SCORE.SYSTEM>
-1.51237

>  <SCORE.SYSTEM.CONST>
0

>  <SCORE.SYSTEM.DIHEDRAL>
0.349196

>  <SCORE.SYSTEM.POLAR>
-0.502458

>  <SCORE.SYSTEM.VDW>
0.0213909

>  <SCORE.SYSTEM.norm>
-0.0945231

>  <SCORE.heavy>
16

>  <SCORE.norm>
-0.775671

>  <enum_code>
M

>  <enum_smi>
Cc1nn2c([O-])c3c([nH+]c2c1C#N)CCC3

>  <sha256>
39e1b0cb6462242f67993cb5678037f9b85a03408faf08abbd395fb60bce143b

>  <std_smi>
Cc1nn2c(O)c3c(nc2c1C#N)CCC3

>  <uuid>
aaefe786-9e4a-4599-b2d7-5ade249e68dc

$$$$
aaefe786-9e4a-4599-b2d7-5ade249e68dc
  rDOCK(R)          3D
libRbt.so/2013.1/901 2013/11/27
 17 19  0  0  0  0  0  0  0  0999 V2000
   -2.3463   21.2047    4.0704 C   0  0  0  0  0  0
   -3.2437   22.3872    4.1385 C   0  0  0  0  0  0
   -4.3470   22.4286    3.3522 N   0  0  0  0  0  0
   -5.0108   23.6272    3.5992 N   0  0  0  0  0  0
   -6.2066   24.2108    3.0664 C   0  0  0  0  0  0
   -6.8028   23.5312    2.1942 O   0  5  0  0  0  0
   -6.5717   25.4240    3.5370 C   0  0  0  0  0  0
   -5.8224   26.1457    4.5784 C   0  0  0  0  0  0
   -4.7366   25.7375    5.1172 N   0  3  0  0  0  0
   -4.2873   24.4324    4.6328 C   0  0  0  0  0  0
   -3.0983   23.5515    4.9647 C   0  0  0  0  0  0
   -2.1004   23.8823    5.9070 C   0  0  0  0  0  0
   -1.3384   24.2496    6.6988 N   0  0  0  0  0  0
   -6.4513   27.4361    4.9598 C   0  0  0  0  0  0
   -7.8688   27.2198    4.4128 C   0  0  0  0  0  0
   -7.7467   26.2906    3.1942 C   0  0  0  0  0  0
   -4.2186   26.2397    5.8326 H   0  0  0  0  0  0
  1  2  1  0  0  0
  2  3  2  0  0  0
  3  4  1  0  0  0
  4  5  1  0  0  0
  5  6  1  0  0  0
  5  7  2  0  0  0
  7  8  1  0  0  0
  8  9  2  0  0  0
  9 10  1  0  0  0
 10 11  2  0  0  0
 11 12  1  0  0  0
 12 13  3  0  0  0
  8 14  1  0  0  0
 14 15  1  0  0  0
 15 16  1  0  0  0
 11  2  1  0  0  0
 10  4  1  0  0  0
 16  7  1  0  0  0
  9 17  1  0  0  0
M  END
>  <CHROM.0>
-59.88758699,68.63901265

>  <CHROM.1>
-4.90308493,24.48196058,4.25512029,0.40033654,0.54823874,-2.55721379

>  <Name>
aaefe786-9e4a-4599-b2d7-5ade249e68dc

>  <RI>
3.11678e+07

>  <Rbt.Current_Directory>
/data/work/jku/5V6S/work/40/8dba899c20c42488f2b1a17844994e

>  <Rbt.Executable>
rbdock ($Id: //depot/dev/client3/rdock/2013.1/src/exe/rbdock.cxx#4 $)

>  <Rbt.Library>
libRbt.so (2013.1, Build901 2013/11/27)

>  <Rbt.Parameter_File>
/rDock_2013.1_src/data/scripts/dock.prm

>  <Rbt.Receptor>
docking.prm

>  <SCORE>
-11.9799

>  <SCORE.INTER>
-10.4665

>  <SCORE.INTER.CONST>
1

>  <SCORE.INTER.POLAR>
0

>  <SCORE.INTER.REPUL>
0

>  <SCORE.INTER.ROT>
0

>  <SCORE.INTER.VDW>
-15.8665

>  <SCORE.INTER.norm>
-0.654158

>  <SCORE.INTRA>
0

>  <SCORE.INTRA.DIHEDRAL>
0

>  <SCORE.INTRA.DIHEDRAL.0>
0

>  <SCORE.INTRA.POLAR>
0

>  <SCORE.INTRA.POLAR.0>
0

>  <SCORE.INTRA.REPUL>
0

>  <SCORE.INTRA.REPUL.0>
0

>  <SCORE.INTRA.VDW>
0

>  <SCORE.INTRA.VDW.0>
0

>  <SCORE.INTRA.norm>
0

>  <SCORE.RESTR>
0

>  <SCORE.RESTR.CAVITY>
0

>  <SCORE.RESTR.norm>
0

>  <SCORE.SYSTEM>
-1.51332

>  <SCORE.SYSTEM.CONST>
0

>  <SCORE.SYSTEM.DIHEDRAL>
0.369691

>  <SCORE.SYSTEM.POLAR>
-0.502712

>  <SCORE.SYSTEM.VDW>
0.0110554

>  <SCORE.SYSTEM.norm>
-0.0945826

>  <SCORE.heavy>
16

>  <SCORE.norm>
-0.748741

>  <enum_code>
M

>  <enum_smi>
Cc1nn2c([O-])c3c([nH+]c2c1C#N)CCC3

>  <sha256>
39e1b0cb6462242f67993cb5678037f9b85a03408faf08abbd395fb60bce143b

>  <std_smi>
Cc1nn2c(O)c3c(nc2c1C#N)CCC3

>  <uuid>
aaefe786-9e4a-4599-b2d7-5ade249e68dc

$$$$
aaefe786-9e4a-4599-b2d7-5ade249e68dc
  rDOCK(R)          3D
libRbt.so/2013.1/901 2013/11/27
 17 19  0  0  0  0  0  0  0  0999 V2000
    0.2040   32.5040    0.0333 C   0  0  0  0  0  0
   -0.4674   31.6095    1.0117 C   0  0  0  0  0  0
   -0.0938   30.3086    1.0861 N   0  0  0  0  0  0
   -0.8656   29.6912    2.0665 N   0  0  0  0  0  0
   -0.9192   28.3496    2.5684 C   0  0  0  0  0  0
   -0.1226   27.5367    2.0366 O   0  5  0  0  0  0
   -1.8144   28.0846    3.5456 C   0  0  0  0  0  0
   -2.7008   29.1054    4.1279 C   0  0  0  0  0  0
   -2.7571   30.3274    3.7548 N   0  3  0  0  0  0
   -1.8166   30.6663    2.6869 C   0  0  0  0  0  0
   -1.5093   31.9489    1.9383 C   0  0  0  0  0  0
   -2.1594   33.1808    2.1685 C   0  0  0  0  0  0
   -2.7529   34.1389    2.4372 N   0  0  0  0  0  0
   -3.5592   28.5773    5.2190 C   0  0  0  0  0  0
   -2.7994   27.2891    5.5634 C   0  0  0  0  0  0
   -2.1158   26.8082    4.2731 C   0  0  0  0  0  0
   -3.3733   31.0292    4.1551 H   0  0  0  0  0  0
  1  2  1  0  0  0
  2  3  2  0  0  0
  3  4  1  0  0  0
  4  5  1  0  0  0
  5  6  1  0  0  0
  5  7  2  0  0  0
  7  8  1  0  0  0
  8  9  2  0  0  0
  9 10  1  0  0  0
 10 11  2  0  0  0
 11 12  1  0  0  0
 12 13  3  0  0  0
  8 14  1  0  0  0
 14 15  1  0  0  0
 15 16  1  0  0  0
 11  2  1  0  0  0
 10  4  1  0  0  0
 16  7  1  0  0  0
  9 17  1  0  0  0
M  END
>  <CHROM.0>
-59.88758699,68.64292467

>  <CHROM.1>
-1.62701871,29.97409185,2.78260486,-1.27413393,-0.78315544,2.79046239

>  <Name>
aaefe786-9e4a-4599-b2d7-5ade249e68dc

>  <RI>
3.11678e+07

>  <Rbt.Current_Directory>
/data/work/jku/5V6S/work/40/8dba899c20c42488f2b1a17844994e

>  <Rbt.Executable>
rbdock ($Id: //depot/dev/client3/rdock/2013.1/src/exe/rbdock.cxx#4 $)

>  <Rbt.Library>
libRbt.so (2013.1, Build901 2013/11/27)

>  <Rbt.Parameter_File>
/rDock_2013.1_src/data/scripts/dock.prm

>  <Rbt.Receptor>
docking.prm

>  <SCORE>
-13.0933

>  <SCORE.INTER>
-11.58

>  <SCORE.INTER.CONST>
1

>  <SCORE.INTER.POLAR>
-0.365573

>  <SCORE.INTER.REPUL>
0.00104444

>  <SCORE.INTER.ROT>
0

>  <SCORE.INTER.VDW>
-15.7423

>  <SCORE.INTER.norm>
-0.723749

>  <SCORE.INTRA>
0

>  <SCORE.INTRA.DIHEDRAL>
0

>  <SCORE.INTRA.DIHEDRAL.0>
0

>  <SCORE.INTRA.POLAR>
0

>  <SCORE.INTRA.POLAR.0>
0

>  <SCORE.INTRA.REPUL>
0

>  <SCORE.INTRA.REPUL.0>
0

>  <SCORE.INTRA.VDW>
0

>  <SCORE.INTRA.VDW.0>
0

>  <SCORE.INTRA.norm>
0

>  <SCORE.RESTR>
0

>  <SCORE.RESTR.CAVITY>
0

>  <SCORE.RESTR.norm>
0

>  <SCORE.SYSTEM>
-1.51333

>  <SCORE.SYSTEM.CONST>
0

>  <SCORE.SYSTEM.DIHEDRAL>
0.370013

>  <SCORE.SYSTEM.POLAR>
-0.502716

>  <SCORE.SYSTEM.VDW>
0.0108962

>  <SCORE.SYSTEM.norm>
-0.0945832

>  <SCORE.heavy>
16

>  <SCORE.norm>
-0.818332

>  <enum_code>
M

>  <enum_smi>
Cc1nn2c([O-])c3c([nH+]c2c1C#N)CCC3

>  <sha256>
39e1b0cb6462242f67993cb5678037f9b85a03408faf08abbd395fb60bce143b

>  <std_smi>
Cc1nn2c(O)c3c(nc2c1C#N)CCC3

>  <uuid>
aaefe786-9e4a-4599-b2d7-5ade249e68dc

$$$$
29da9ebc-6015-4ede-9637-18f7e67b1404
  rDOCK(R)          3D
libRbt.so/2013.1/901 2013/11/27
 17 19  0  0  0  0  0  0  0  0999 V2000
   -2.3896   31.6704    3.8179 C   0  0  0  0  0  0
   -1.9414   30.2896    3.9865 C   0  0  0  0  0  0
   -2.1072   29.5387    5.1470 N   0  3  0  0  0  0
   -1.5160   28.2193    4.8844 N   0  0  0  0  0  0
   -1.5086   27.2484    5.8259 C   0  0  0  0  0  0
   -2.0556   27.6227    6.8901 O   0  5  0  0  0  0
   -0.9087   26.1423    5.3807 C   0  0  0  0  0  0
   -0.3981   26.1221    3.9699 C   0  0  0  0  0  0
   -0.4077   27.0691    3.0799 N   0  0  0  0  0  0
   -1.0035   28.1715    3.5917 C   0  0  0  0  0  0
   -1.2565   29.4638    2.9990 C   0  0  0  0  0  0
   -0.9019   29.8531    1.6901 C   0  0  0  0  0  0
   -0.6457   30.2508    0.6311 N   0  0  0  0  0  0
    0.1835   24.7678    3.6828 C   0  0  0  0  0  0
   -0.4614   23.9094    4.7746 C   0  0  0  0  0  0
   -0.6478   24.8148    5.9959 C   0  0  0  0  0  0
   -2.5167   29.6888    6.0754 H   0  0  0  0  0  0
  1  2  1  0  0  0
  2  3  2  0  0  0
  3  4  1  0  0  0
  4  5  1  0  0  0
  5  6  1  0  0  0
  5  7  2  0  0  0
  7  8  1  0  0  0
  8  9  2  0  0  0
  9 10  1  0  0  0
 10 11  2  0  0  0
 11 12  1  0  0  0
 12 13  3  0  0  0
  8 14  1  0  0  0
 14 15  1  0  0  0
 15 16  1  0  0  0
 11  2  1  0  0  0
 10  4  1  0  0  0
 16  7  1  0  0  0
  3 17  1  0  0  0
M  END
>  <CHROM.0>
-59.88758699,68.92640665

>  <CHROM.1>
-1.14343955,27.82294609,4.19468991,1.94137724,1.10668217,-0.74061955

>  <Name>
29da9ebc-6015-4ede-9637-18f7e67b1404

>  <RI>
1.79295e+07

>  <Rbt.Current_Directory>
/data/work/jku/5V6S/work/40/8dba899c20c42488f2b1a17844994e

>  <Rbt.Executable>
rbdock ($Id: //depot/dev/client3/rdock/2013.1/src/exe/rbdock.cxx#4 $)

>  <Rbt.Library>
libRbt.so (2013.1, Build901 2013/11/27)

>  <Rbt.Parameter_File>
/rDock_2013.1_src/data/scripts/dock.prm

>  <Rbt.Receptor>
docking.prm

>  <SCORE>
-10.9197

>  <SCORE.INTER>
-9.40603

>  <SCORE.INTER.CONST>
1

>  <SCORE.INTER.POLAR>
0

>  <SCORE.INTER.REPUL>
0.126076

>  <SCORE.INTER.ROT>
0

>  <SCORE.INTER.VDW>
-15.4364

>  <SCORE.INTER.norm>
-0.587877

>  <SCORE.INTRA>
0

>  <SCORE.INTRA.DIHEDRAL>
0

>  <SCORE.INTRA.DIHEDRAL.0>
0

>  <SCORE.INTRA.POLAR>
0

>  <SCORE.INTRA.POLAR.0>
0

>  <SCORE.INTRA.REPUL>
0

>  <SCORE.INTRA.REPUL.0>
0

>  <SCORE.INTRA.VDW>
0

>  <SCORE.INTRA.VDW.0>
0

>  <SCORE.INTRA.norm>
0

>  <SCORE.RESTR>
0

>  <SCORE.RESTR.CAVITY>
0

>  <SCORE.RESTR.norm>
0

>  <SCORE.SYSTEM>
-1.51367

>  <SCORE.SYSTEM.CONST>
0

>  <SCORE.SYSTEM.DIHEDRAL>
0.393734

>  <SCORE.SYSTEM.POLAR>
-0.502939

>  <SCORE.SYSTEM.VDW>
-0.000542615

>  <SCORE.SYSTEM.norm>
-0.0946042

>  <SCORE.heavy>
16

>  <SCORE.norm>
-0.682481

>  <enum_code>
M

>  <enum_smi>
Cc1[nH+]n2c([O-])c3c(nc2c1C#N)CCC3

>  <sha256>
39e1b0cb6462242f67993cb5678037f9b85a03408faf08abbd395fb60bce143b

>  <std_smi>
Cc1nn2c(O)c3c(nc2c1C#N)CCC3

>  <uuid>
29da9ebc-6015-4ede-9637-18f7e67b1404

$$$$
29da9ebc-6015-4ede-9637-18f7e67b1404
  rDOCK(R)          3D
libRbt.so/2013.1/901 2013/11/27
 17 19  0  0  0  0  0  0  0  0999 V2000
   -1.7448   33.7710    2.6752 C   0  0  0  0  0  0
   -1.7264   32.3878    3.1467 C   0  0  0  0  0  0
   -2.2137   31.9644    4.3802 N   0  3  0  0  0  0
   -1.9985   30.5122    4.4435 N   0  0  0  0  0  0
   -2.3612   29.7909    5.5286 C   0  0  0  0  0  0
   -2.8826   30.5075    6.4153 O   0  5  0  0  0  0
   -2.0588   28.4995    5.3787 C   0  0  0  0  0  0
   -1.4368   28.0541    4.0879 C   0  0  0  0  0  0
   -1.0881   28.7642    3.0568 N   0  0  0  0  0  0
   -1.3942   30.0648    3.2727 C   0  0  0  0  0  0
   -1.2093   31.2257    2.4338 C   0  0  0  0  0  0
   -0.6299   31.2281    1.1474 C   0  0  0  0  0  0
   -0.1669   31.3160    0.0875 N   0  0  0  0  0  0
   -1.2382   26.5663    4.1320 C   0  0  0  0  0  0
   -2.2059   26.1515    5.2437 C   0  0  0  0  0  0
   -2.2485   27.3082    6.2468 C   0  0  0  0  0  0
   -2.6542   32.4056    5.1947 H   0  0  0  0  0  0
  1  2  1  0  0  0
  2  3  2  0  0  0
  3  4  1  0  0  0
  4  5  1  0  0  0
  5  6  1  0  0  0
  5  7  2  0  0  0
  7  8  1  0  0  0
  8  9  2  0  0  0
  9 10  1  0  0  0
 10 11  2  0  0  0
 11 12  1  0  0  0
 12 13  3  0  0  0
  8 14  1  0  0  0
 14 15  1  0  0  0
 15 16  1  0  0  0
 11  2  1  0  0  0
 10  4  1  0  0  0
 16  7  1  0  0  0
  3 17  1  0  0  0
M  END
>  <CHROM.0>
-59.88758699,69.07689958

>  <CHROM.1>
-1.68687261,29.89812437,3.89816528,1.22999707,1.13265260,-0.29176336

>  <Name>
29da9ebc-6015-4ede-9637-18f7e67b1404

>  <RI>
1.79295e+07

>  <Rbt.Current_Directory>
/data/work/jku/5V6S/work/40/8dba899c20c42488f2b1a17844994e

>  <Rbt.Executable>
rbdock ($Id: //depot/dev/client3/rdock/2013.1/src/exe/rbdock.cxx#4 $)

>  <Rbt.Library>
libRbt.so (2013.1, Build901 2013/11/27)

>  <Rbt.Parameter_File>
/rDock_2013.1_src/data/scripts/dock.prm

>  <Rbt.Receptor>
docking.prm

>  <SCORE>
-13.4493

>  <SCORE.INTER>
-11.938

>  <SCORE.INTER.CONST>
1

>  <SCORE.INTER.POLAR>
-0.563234

>  <SCORE.INTER.REPUL>
0

>  <SCORE.INTER.ROT>
0

>  <SCORE.INTER.VDW>
-15.423

>  <SCORE.INTER.norm>
-0.746123

>  <SCORE.INTRA>
0

>  <SCORE.INTRA.DIHEDRAL>
0

>  <SCORE.INTRA.DIHEDRAL.0>
0

>  <SCORE.INTRA.POLAR>
0

>  <SCORE.INTRA.POLAR.0>
0

>  <SCORE.INTRA.REPUL>
0

>  <SCORE.INTRA.REPUL.0>
0

>  <SCORE.INTRA.VDW>
0

>  <SCORE.INTRA.VDW.0>
0

>  <SCORE.INTRA.norm>
0

>  <SCORE.RESTR>
0.00223272

>  <SCORE.RESTR.CAVITY>
0.00223272

>  <SCORE.RESTR.norm>
0.000139545

>  <SCORE.SYSTEM>
-1.51354

>  <SCORE.SYSTEM.CONST>
0

>  <SCORE.SYSTEM.DIHEDRAL>
0.406614

>  <SCORE.SYSTEM.POLAR>
-0.503031

>  <SCORE.SYSTEM.VDW>
-0.00654029

>  <SCORE.SYSTEM.norm>
-0.0945961

>  <SCORE.heavy>
16

>  <SCORE.norm>
-0.840579

>  <enum_code>
M

>  <enum_smi>
Cc1[nH+]n2c([O-])c3c(nc2c1C#N)CCC3

>  <sha256>
39e1b0cb6462242f67993cb5678037f9b85a03408faf08abbd395fb60bce143b

>  <std_smi>
Cc1nn2c(O)c3c(nc2c1C#N)CCC3

>  <uuid>
29da9ebc-6015-4ede-9637-18f7e67b1404

$$$$
29da9ebc-6015-4ede-9637-18f7e67b1404
  rDOCK(R)          3D
libRbt.so/2013.1/901 2013/11/27
 17 19  0  0  0  0  0  0  0  0999 V2000
   -1.7277   33.7999    2.6742 C   0  0  0  0  0  0
   -1.7110   32.4181    3.1499 C   0  0  0  0  0  0
   -2.2158   31.9962    4.3769 N   0  3  0  0  0  0
   -1.9957   30.5451    4.4476 N   0  0  0  0  0  0
   -2.3724   29.8253    5.5289 C   0  0  0  0  0  0
   -2.9105   30.5421    6.4054 O   0  5  0  0  0  0
   -2.0625   28.5347    5.3874 C   0  0  0  0  0  0
   -1.4187   28.0882    4.1077 C   0  0  0  0  0  0
   -1.0568   28.7970    3.0802 N   0  0  0  0  0  0
   -1.3715   30.0969    3.2876 C   0  0  0  0  0  0
   -1.1782   31.2562    2.4484 C   0  0  0  0  0  0
   -0.5789   31.2574    1.1712 C   0  0  0  0  0  0
   -0.0998   31.3443    0.1184 N   0  0  0  0  0  0
   -1.2147   26.6015    4.1591 C   0  0  0  0  0  0
   -2.1980   26.1858    5.2568 C   0  0  0  0  0  0
   -2.2609   27.3450    6.2558 C   0  0  0  0  0  0
   -2.6707   32.4378    5.1832 H   0  0  0  0  0  0
  1  2  1  0  0  0
  2  3  2  0  0  0
  3  4  1  0  0  0
  4  5  1  0  0  0
  5  6  1  0  0  0
  5  7  2  0  0  0
  7  8  1  0  0  0
  8  9  2  0  0  0
  9 10  1  0  0  0
 10 11  2  0  0  0
 11 12  1  0  0  0
 12 13  3  0  0  0
  8 14  1  0  0  0
 14 15  1  0  0  0
 15 16  1  0  0  0
 11  2  1  0  0  0
 10  4  1  0  0  0
 16  7  1  0  0  0
  3 17  1  0  0  0
M  END
>  <CHROM.0>
-59.88758699,69.11364614

>  <CHROM.1>
-1.67318607,29.93073421,3.90890886,1.22859196,1.11655778,-0.29328941

>  <Name>
29da9ebc-6015-4ede-9637-18f7e67b1404

>  <RI>
1.79295e+07

>  <Rbt.Current_Directory>
/data/work/jku/5V6S/work/40/8dba899c20c42488f2b1a17844994e

>  <Rbt.Executable>
rbdock ($Id: //depot/dev/client3/rdock/2013.1/src/exe/rbdock.cxx#4 $)

>  <Rbt.Library>
libRbt.so (2013.1, Build901 2013/11/27)

>  <Rbt.Parameter_File>
/rDock_2013.1_src/data/scripts/dock.prm

>  <Rbt.Receptor>
docking.prm

>  <SCORE>
-13.4432

>  <SCORE.INTER>
-11.9304

>  <SCORE.INTER.CONST>
1

>  <SCORE.INTER.POLAR>
-0.629017

>  <SCORE.INTER.REPUL>
0

>  <SCORE.INTER.ROT>
0

>  <SCORE.INTER.VDW>
-15.1917

>  <SCORE.INTER.norm>
-0.745647

>  <SCORE.INTRA>
0

>  <SCORE.INTRA.DIHEDRAL>
0

>  <SCORE.INTRA.DIHEDRAL.0>
0

>  <SCORE.INTRA.POLAR>
0

>  <SCORE.INTRA.POLAR.0>
0

>  <SCORE.INTRA.REPUL>
0

>  <SCORE.INTRA.REPUL.0>
0

>  <SCORE.INTRA.VDW>
0

>  <SCORE.INTRA.VDW.0>
0

>  <SCORE.INTRA.norm>
0

>  <SCORE.RESTR>
0.000616454

>  <SCORE.RESTR.CAVITY>
0.000616454

>  <SCORE.RESTR.norm>
3.85284e-05

>  <SCORE.SYSTEM>
-1.51347

>  <SCORE.SYSTEM.CONST>
0

>  <SCORE.SYSTEM.DIHEDRAL>
0.40979

>  <SCORE.SYSTEM.POLAR>
-0.50305

>  <SCORE.SYSTEM.VDW>
-0.00799693

>  <SCORE.SYSTEM.norm>
-0.094592

>  <SCORE.heavy>
16

>  <SCORE.norm>
-0.840201

>  <enum_code>
M

>  <enum_smi>
Cc1[nH+]n2c([O-])c3c(nc2c1C#N)CCC3

>  <sha256>
39e1b0cb6462242f67993cb5678037f9b85a03408faf08abbd395fb60bce143b

>  <std_smi>
Cc1nn2c(O)c3c(nc2c1C#N)CCC3

>  <uuid>
29da9ebc-6015-4ede-9637-18f7e67b1404

$$$$
29da9ebc-6015-4ede-9637-18f7e67b1404
  rDOCK(R)          3D
libRbt.so/2013.1/901 2013/11/27
 17 19  0  0  0  0  0  0  0  0999 V2000
   -7.4713   24.2774    3.9093 C   0  0  0  0  0  0
   -6.0144   24.2418    4.0195 C   0  0  0  0  0  0
   -5.2076   23.2168    3.5329 N   0  3  0  0  0  0
   -3.8211   23.5814    3.8553 N   0  0  0  0  0  0
   -2.7839   22.7812    3.5193 C   0  0  0  0  0  0
   -3.1639   21.7465    2.9219 O   0  5  0  0  0  0
   -1.6203   23.2965    3.9220 C   0  0  0  0  0  0
   -1.6268   24.6300    4.6099 C   0  0  0  0  0  0
   -2.6362   25.3829    4.9313 N   0  0  0  0  0  0
   -3.7883   24.8020    4.5224 C   0  0  0  0  0  0
   -5.1578   25.2446    4.6415 C   0  0  0  0  0  0
   -5.5861   26.4417    5.2530 C   0  0  0  0  0  0
   -6.0197   27.4029    5.7360 N   0  0  0  0  0  0
   -0.2112   25.0244    4.9189 C   0  0  0  0  0  0
    0.5813   24.1359    3.9560 C   0  0  0  0  0  0
   -0.2127   22.8355    3.7997 C   0  0  0  0  0  0
   -5.3528   22.3297    3.0389 H   0  0  0  0  0  0
  1  2  1  0  0  0
  2  3  2  0  0  0
  3  4  1  0  0  0
  4  5  1  0  0  0
  5  6  1  0  0  0
  5  7  2  0  0  0
  7  8  1  0  0  0
  8  9  2  0  0  0
  9 10  1  0  0  0
 10 11  2  0  0  0
 11 12  1  0  0  0
 12 13  3  0  0  0
  8 14  1  0  0  0
 14 15  1  0  0  0
 15 16  1  0  0  0
 11  2  1  0  0  0
 10  4  1  0  0  0
 16  7  1  0  0  0
  3 17  1  0  0  0
M  END
>  <CHROM.0>
-59.88758699,69.01941671

>  <CHROM.1>
-3.42191660,24.27009455,4.22662904,2.84249140,-0.05107426,0.48687168

>  <Name>
29da9ebc-6015-4ede-9637-18f7e67b1404

>  <RI>
1.79295e+07

>  <Rbt.Current_Directory>
/data/work/jku/5V6S/work/40/8dba899c20c42488f2b1a17844994e

>  <Rbt.Executable>
rbdock ($Id: //depot/dev/client3/rdock/2013.1/src/exe/rbdock.cxx#4 $)

>  <Rbt.Library>
libRbt.so (2013.1, Build901 2013/11/27)

>  <Rbt.Parameter_File>
/rDock_2013.1_src/data/scripts/dock.prm

>  <Rbt.Receptor>
docking.prm

>  <SCORE>
-12.6939

>  <SCORE.INTER>
-11.1805

>  <SCORE.INTER.CONST>
1

>  <SCORE.INTER.POLAR>
0

>  <SCORE.INTER.REPUL>
0

>  <SCORE.INTER.ROT>
0

>  <SCORE.INTER.VDW>
-16.5805

>  <SCORE.INTER.norm>
-0.698781

>  <SCORE.INTRA>
0

>  <SCORE.INTRA.DIHEDRAL>
0

>  <SCORE.INTRA.DIHEDRAL.0>
0

>  <SCORE.INTRA.POLAR>
0

>  <SCORE.INTRA.POLAR.0>
0

>  <SCORE.INTRA.REPUL>
0

>  <SCORE.INTRA.REPUL.0>
0

>  <SCORE.INTRA.VDW>
0

>  <SCORE.INTRA.VDW.0>
0

>  <SCORE.INTRA.norm>
0

>  <SCORE.RESTR>
0.000162413

>  <SCORE.RESTR.CAVITY>
0.000162413

>  <SCORE.RESTR.norm>
1.01508e-05

>  <SCORE.SYSTEM>
-1.51361

>  <SCORE.SYSTEM.CONST>
0

>  <SCORE.SYSTEM.DIHEDRAL>
0.401671

>  <SCORE.SYSTEM.POLAR>
-0.502998

>  <SCORE.SYSTEM.VDW>
-0.0042555

>  <SCORE.SYSTEM.norm>
-0.0946007

>  <SCORE.heavy>
16

>  <SCORE.norm>
-0.793372

>  <enum_code>
M

>  <enum_smi>
Cc1[nH+]n2c([O-])c3c(nc2c1C#N)CCC3

>  <sha256>
39e1b0cb6462242f67993cb5678037f9b85a03408faf08abbd395fb60bce143b

>  <std_smi>
Cc1nn2c(O)c3c(nc2c1C#N)CCC3

>  <uuid>
29da9ebc-6015-4ede-9637-18f7e67b1404

$$$$
29da9ebc-6015-4ede-9637-18f7e67b1404
  rDOCK(R)          3D
libRbt.so/2013.1/901 2013/11/27
 17 19  0  0  0  0  0  0  0  0999 V2000
   -0.2556   32.4855    0.0506 C   0  0  0  0  0  0
   -0.6049   31.4727    1.0448 C   0  0  0  0  0  0
   -0.3492   30.1106    0.9121 N   0  3  0  0  0  0
   -0.8601   29.4645    2.1290 N   0  0  0  0  0  0
   -0.7701   28.1273    2.3098 C   0  0  0  0  0  0
   -0.2125   27.5593    1.3412 O   0  5  0  0  0  0
   -1.3103   27.7552    3.4723 C   0  0  0  0  0  0
   -1.8673   28.8156    4.3760 C   0  0  0  0  0  0
   -1.9517   30.0979    4.1819 N   0  0  0  0  0  0
   -1.4131   30.4152    2.9814 C   0  0  0  0  0  0
   -1.2674   31.6931    2.3249 C   0  0  0  0  0  0
   -1.6924   32.9363    2.8391 C   0  0  0  0  0  0
   -2.0113   33.9951    3.1893 N   0  0  0  0  0  0
   -2.3672   28.1679    5.6350 C   0  0  0  0  0  0
   -1.6290   26.8265    5.6145 C   0  0  0  0  0  0
   -1.4608   26.4373    4.1427 C   0  0  0  0  0  0
    0.0815   29.5020    0.2078 H   0  0  0  0  0  0
  1  2  1  0  0  0
  2  3  2  0  0  0
  3  4  1  0  0  0
  4  5  1  0  0  0
  5  6  1  0  0  0
  5  7  2  0  0  0
  7  8  1  0  0  0
  8  9  2  0  0  0
  9 10  1  0  0  0
 10 11  2  0  0  0
 11 12  1  0  0  0
 12 13  3  0  0  0
  8 14  1  0  0  0
 14 15  1  0  0  0
 15 16  1  0  0  0
 11  2  1  0  0  0
 10  4  1  0  0  0
 16  7  1  0  0  0
  3 17  1  0  0  0
M  END
>  <CHROM.0>
-59.88758699,69.31215960

>  <CHROM.1>
-1.22934082,29.73675797,2.87811668,-1.36774169,-1.12038170,2.82673708

>  <Name>
29da9ebc-6015-4ede-9637-18f7e67b1404

>  <RI>
1.79295e+07

>  <Rbt.Current_Directory>
/data/work/jku/5V6S/work/40/8dba899c20c42488f2b1a17844994e

>  <Rbt.Executable>
rbdock ($Id: //depot/dev/client3/rdock/2013.1/src/exe/rbdock.cxx#4 $)

>  <Rbt.Library>
libRbt.so (2013.1, Build901 2013/11/27)

>  <Rbt.Parameter_File>
/rDock_2013.1_src/data/scripts/dock.prm

>  <Rbt.Receptor>
docking.prm

>  <SCORE>
-13.0773

>  <SCORE.INTER>
-11.5644

>  <SCORE.INTER.CONST>
1

>  <SCORE.INTER.POLAR>
-0.743605

>  <SCORE.INTER.REPUL>
0.572182

>  <SCORE.INTER.ROT>
0

>  <SCORE.INTER.VDW>
-17.2971

>  <SCORE.INTER.norm>
-0.722777

>  <SCORE.INTRA>
0

>  <SCORE.INTRA.DIHEDRAL>
0

>  <SCORE.INTRA.DIHEDRAL.0>
0

>  <SCORE.INTRA.POLAR>
0

>  <SCORE.INTRA.POLAR.0>
0

>  <SCORE.INTRA.REPUL>
0

>  <SCORE.INTRA.REPUL.0>
0

>  <SCORE.INTRA.VDW>
0

>  <SCORE.INTRA.VDW.0>
0

>  <SCORE.INTRA.norm>
0

>  <SCORE.RESTR>
0

>  <SCORE.RESTR.CAVITY>
0

>  <SCORE.RESTR.norm>
0

>  <SCORE.SYSTEM>
-1.51291

>  <SCORE.SYSTEM.CONST>
0

>  <SCORE.SYSTEM.DIHEDRAL>
0.427148

>  <SCORE.SYSTEM.POLAR>
-0.503137

>  <SCORE.SYSTEM.VDW>
-0.0158131

>  <SCORE.SYSTEM.norm>
-0.0945566

>  <SCORE.heavy>
16

>  <SCORE.norm>
-0.817334

>  <enum_code>
M

>  <enum_smi>
Cc1[nH+]n2c([O-])c3c(nc2c1C#N)CCC3

>  <sha256>
39e1b0cb6462242f67993cb5678037f9b85a03408faf08abbd395fb60bce143b

>  <std_smi>
Cc1nn2c(O)c3c(nc2c1C#N)CCC3

>  <uuid>
29da9ebc-6015-4ede-9637-18f7e67b1404

$$$$
e864d2bc-9563-4f49-9638-2dfc4e00e207
  rDOCK(R)          3D
libRbt.so/2013.1/901 2013/11/27
 18 20  0  0  0  0  0  0  0  0999 V2000
   -0.5610   24.7263    6.5166 C   0  0  0  0  0  0
   -1.9016   24.9494    5.9702 C   0  0  0  0  0  0
   -2.6433   26.1362    6.1275 N   0  3  0  0  0  0
   -3.9390   25.9244    5.4145 N   0  0  0  0  0  0
   -4.9449   26.8200    5.3122 C   0  0  0  0  0  0
   -4.7699   28.0263    5.9133 O   0  0  0  0  0  0
   -5.9999   26.4099    4.6102 C   0  0  0  0  0  0
   -5.9509   25.0147    4.0705 C   0  0  0  0  0  0
   -4.9913   24.1483    4.1548 N   0  0  0  0  0  0
   -3.9444   24.6361    4.8561 C   0  0  0  0  0  0
   -2.6874   24.0103    5.1880 C   0  0  0  0  0  0
   -2.2947   22.7052    4.8151 C   0  0  0  0  0  0
   -1.9043   21.6480    4.5476 N   0  0  0  0  0  0
   -7.2387   24.7149    3.3583 C   0  0  0  0  0  0
   -8.1724   25.7786    3.9424 C   0  0  0  0  0  0
   -7.3090   27.0082    4.2402 C   0  0  0  0  0  0
   -2.4026   27.0020    6.6156 H   0  0  0  0  0  0
   -5.5997   28.5286    5.8149 H   0  0  0  0  0  0
  1  2  1  0  0  0
  2  3  2  0  0  0
  3  4  1  0  0  0
  4  5  1  0  0  0
  5  6  1  0  0  0
  5  7  2  0  0  0
  7  8  1  0  0  0
  8  9  2  0  0  0
  9 10  1  0  0  0
 10 11  2  0  0  0
 11 12  1  0  0  0
 12 13  3  0  0  0
  8 14  1  0  0  0
 14 15  1  0  0  0
 15 16  1  0  0  0
 11  2  1  0  0  0
 10  4  1  0  0  0
 16  7  1  0  0  0
  3 17  1  0  0  0
  6 18  1  0  0  0
M  END
>  <CHROM.0>
-59.88758699,68.75222831

>  <CHROM.1>
-175.47798178,-4.33611101,25.22995827,4.96577764,-0.29723898,-0.38762989
0.39357318

>  <Name>
e864d2bc-9563-4f49-9638-2dfc4e00e207

>  <RI>
4.3464e+07

>  <Rbt.Current_Directory>
/data/work/jku/5V6S/work/40/8dba899c20c42488f2b1a17844994e

>  <Rbt.Executable>
rbdock ($Id: //depot/dev/client3/rdock/2013.1/src/exe/rbdock.cxx#4 $)

>  <Rbt.Library>
libRbt.so (2013.1, Build901 2013/11/27)

>  <Rbt.Parameter_File>
/rDock_2013.1_src/data/scripts/dock.prm

>  <Rbt.Receptor>
docking.prm

>  <SCORE>
-12.852

>  <SCORE.INTER>
-11.3519

>  <SCORE.INTER.CONST>
1

>  <SCORE.INTER.POLAR>
-0.10572

>  <SCORE.INTER.REPUL>
0

>  <SCORE.INTER.ROT>
0

>  <SCORE.INTER.VDW>
-16.3924

>  <SCORE.INTER.norm>
-0.709493

>  <SCORE.INTRA>
0.0133847

>  <SCORE.INTRA.DIHEDRAL>
0.0350832

>  <SCORE.INTRA.DIHEDRAL.0>
0.000259708

>  <SCORE.INTRA.POLAR>
0

>  <SCORE.INTRA.POLAR.0>
0

>  <SCORE.INTRA.REPUL>
0

>  <SCORE.INTRA.REPUL.0>
0

>  <SCORE.INTRA.VDW>
-0.00415691

>  <SCORE.INTRA.VDW.0>
0.00790608

>  <SCORE.INTRA.norm>
0.000836543

>  <SCORE.RESTR>
0

>  <SCORE.RESTR.CAVITY>
0

>  <SCORE.RESTR.norm>
0

>  <SCORE.SYSTEM>
-1.51355

>  <SCORE.SYSTEM.CONST>
0

>  <SCORE.SYSTEM.DIHEDRAL>
0.379075

>  <SCORE.SYSTEM.POLAR>
-0.50281

>  <SCORE.SYSTEM.VDW>
0.00646377

>  <SCORE.SYSTEM.norm>
-0.0945969

>  <SCORE.heavy>
16

>  <SCORE.norm>
-0.803253

>  <enum_code>
M

>  <enum_smi>
Cc1[nH+]n2c(O)c3c(nc2c1C#N)CCC3

>  <sha256>
39e1b0cb6462242f67993cb5678037f9b85a03408faf08abbd395fb60bce143b

>  <std_smi>
Cc1nn2c(O)c3c(nc2c1C#N)CCC3

>  <uuid>
e864d2bc-9563-4f49-9638-2dfc4e00e207

$$$$
e864d2bc-9563-4f49-9638-2dfc4e00e207
  rDOCK(R)          3D
libRbt.so/2013.1/901 2013/11/27
 18 20  0  0  0  0  0  0  0  0999 V2000
   -3.6596   29.8659    6.3101 C   0  0  0  0  0  0
   -2.8499   30.3160    5.1755 C   0  0  0  0  0  0
   -2.5095   31.6578    4.9167 N   0  3  0  0  0  0
   -1.6835   31.6535    3.6718 N   0  0  0  0  0  0
   -1.1431   32.7372    3.0734 C   0  0  0  0  0  0
   -1.3699   33.9466    3.6504 O   0  0  0  0  0  0
   -0.4289   32.4828    1.9782 C   0  0  0  0  0  0
   -0.3555   31.0547    1.5365 C   0  0  0  0  0  0
   -0.8623   30.0058    2.1036 N   0  0  0  0  0  0
   -1.5508   30.3307    3.2198 C   0  0  0  0  0  0
   -2.2675   29.4804    4.1391 C   0  0  0  0  0  0
   -2.3819   28.0754    4.0412 C   0  0  0  0  0  0
   -2.5194   26.9255    4.0273 N   0  0  0  0  0  0
    0.4416   30.9707    0.2664 C   0  0  0  0  0  0
    0.3775   32.4152   -0.2375 C   0  0  0  0  0  0
    0.3240   33.3131    1.0024 C   0  0  0  0  0  0
   -2.7451   32.5074    5.4348 H   0  0  0  0  0  0
   -1.0540   34.6322    3.0333 H   0  0  0  0  0  0
  1  2  1  0  0  0
  2  3  2  0  0  0
  3  4  1  0  0  0
  4  5  1  0  0  0
  5  6  1  0  0  0
  5  7  2  0  0  0
  7  8  1  0  0  0
  8  9  2  0  0  0
  9 10  1  0  0  0
 10 11  2  0  0  0
 11 12  1  0  0  0
 12 13  3  0  0  0
  8 14  1  0  0  0
 14 15  1  0  0  0
 15 16  1  0  0  0
 11  2  1  0  0  0
 10  4  1  0  0  0
 16  7  1  0  0  0
  3 17  1  0  0  0
  6 18  1  0  0  0
M  END
>  <CHROM.0>
-59.88758699,68.36600420

>  <CHROM.1>
-170.51833093,-1.40631266,31.01963987,3.06952199,2.69606276,-1.00533599,-2.93927036

>  <Name>
e864d2bc-9563-4f49-9638-2dfc4e00e207

>  <RI>
4.3464e+07

>  <Rbt.Current_Directory>
/data/work/jku/5V6S/work/40/8dba899c20c42488f2b1a17844994e

>  <Rbt.Executable>
rbdock ($Id: //depot/dev/client3/rdock/2013.1/src/exe/rbdock.cxx#4 $)

>  <Rbt.Library>
libRbt.so (2013.1, Build901 2013/11/27)

>  <Rbt.Parameter_File>
/rDock_2013.1_src/data/scripts/dock.prm

>  <Rbt.Receptor>
docking.prm

>  <SCORE>
-15.9026

>  <SCORE.INTER>
-14.4454

>  <SCORE.INTER.CONST>
1

>  <SCORE.INTER.POLAR>
-1.37539

>  <SCORE.INTER.REPUL>
0.0333613

>  <SCORE.INTER.ROT>
0

>  <SCORE.INTER.VDW>
-15.3359

>  <SCORE.INTER.norm>
-0.902837

>  <SCORE.INTRA>
0.0550068

>  <SCORE.INTRA.DIHEDRAL>
0.140902

>  <SCORE.INTRA.DIHEDRAL.0>
0.000259708

>  <SCORE.INTRA.POLAR>
0

>  <SCORE.INTRA.POLAR.0>
0

>  <SCORE.INTRA.REPUL>
0

>  <SCORE.INTRA.REPUL.0>
0

>  <SCORE.INTRA.VDW>
-0.0154441

>  <SCORE.INTRA.VDW.0>
0.00790608

>  <SCORE.INTRA.norm>
0.00343792

>  <SCORE.RESTR>
0

>  <SCORE.RESTR.CAVITY>
0

>  <SCORE.RESTR.norm>
0

>  <SCORE.SYSTEM>
-1.51226

>  <SCORE.SYSTEM.CONST>
0

>  <SCORE.SYSTEM.DIHEDRAL>
0.347531

>  <SCORE.SYSTEM.POLAR>
-0.502435

>  <SCORE.SYSTEM.VDW>
0.0222499

>  <SCORE.SYSTEM.norm>
-0.0945165

>  <SCORE.heavy>
16

>  <SCORE.norm>
-0.993915

>  <enum_code>
M

>  <enum_smi>
Cc1[nH+]n2c(O)c3c(nc2c1C#N)CCC3

>  <sha256>
39e1b0cb6462242f67993cb5678037f9b85a03408faf08abbd395fb60bce143b

>  <std_smi>
Cc1nn2c(O)c3c(nc2c1C#N)CCC3

>  <uuid>
e864d2bc-9563-4f49-9638-2dfc4e00e207

$$$$
e864d2bc-9563-4f49-9638-2dfc4e00e207
  rDOCK(R)          3D
libRbt.so/2013.1/901 2013/11/27
 18 20  0  0  0  0  0  0  0  0999 V2000
   -3.6460   29.8452    6.2878 C   0  0  0  0  0  0
   -2.8351   30.2982    5.1552 C   0  0  0  0  0  0
   -2.4946   31.6407    4.9002 N   0  3  0  0  0  0
   -1.6673   31.6396    3.6561 N   0  0  0  0  0  0
   -1.1264   32.7249    3.0611 C   0  0  0  0  0  0
   -1.3538   33.9328    3.6410 O   0  0  0  0  0  0
   -0.4111   32.4735    1.9660 C   0  0  0  0  0  0
   -0.3371   31.0465    1.5206 C   0  0  0  0  0  0
   -0.8444   29.9961    2.0845 N   0  0  0  0  0  0
   -1.5341   30.3181    3.2008 C   0  0  0  0  0  0
   -2.2517   29.4654    4.1172 C   0  0  0  0  0  0
   -2.3660   28.0606    4.0156 C   0  0  0  0  0  0
   -2.5034   26.9107    3.9985 N   0  0  0  0  0  0
    0.4612   30.9658    0.2512 C   0  0  0  0  0  0
    0.3976   32.4116   -0.2490 C   0  0  0  0  0  0
    0.3428   33.3062    0.9930 C   0  0  0  0  0  0
   -2.7307   32.4890    5.4203 H   0  0  0  0  0  0
   -1.0521   34.6205    3.0192 H   0  0  0  0  0  0
  1  2  1  0  0  0
  2  3  2  0  0  0
  3  4  1  0  0  0
  4  5  1  0  0  0
  5  6  1  0  0  0
  5  7  2  0  0  0
  7  8  1  0  0  0
  8  9  2  0  0  0
  9 10  1  0  0  0
 10 11  2  0  0  0
 11 12  1  0  0  0
 12 13  3  0  0  0
  8 14  1  0  0  0
 14 15  1  0  0  0
 15 16  1  0  0  0
 11  2  1  0  0  0
 10  4  1  0  0  0
 16  7  1  0  0  0
  3 17  1  0  0  0
  6 18  1  0  0  0
M  END
>  <CHROM.0>
-59.88758699,69.42796196

>  <CHROM.1>
-169.51079363,-1.38955458,31.00740375,3.05246910,2.69547863,-1.00434067,-2.93722553

>  <Name>
e864d2bc-9563-4f49-9638-2dfc4e00e207

>  <RI>
4.3464e+07

>  <Rbt.Current_Directory>
/data/work/jku/5V6S/work/40/8dba899c20c42488f2b1a17844994e

>  <Rbt.Executable>
rbdock ($Id: //depot/dev/client3/rdock/2013.1/src/exe/rbdock.cxx#4 $)

>  <Rbt.Library>
libRbt.so (2013.1, Build901 2013/11/27)

>  <Rbt.Parameter_File>
/rDock_2013.1_src/data/scripts/dock.prm

>  <Rbt.Receptor>
docking.prm

>  <SCORE>
-15.8994

>  <SCORE.INTER>
-14.4539

>  <SCORE.INTER.CONST>
1

>  <SCORE.INTER.POLAR>
-1.37429

>  <SCORE.INTER.REPUL>
0.0340314

>  <SCORE.INTER.ROT>
0

>  <SCORE.INTER.VDW>
-15.3514

>  <SCORE.INTER.norm>
-0.903366

>  <SCORE.INTRA>
0.0668732

>  <SCORE.INTRA.DIHEDRAL>
0.170791

>  <SCORE.INTRA.DIHEDRAL.0>
0.000259708

>  <SCORE.INTRA.POLAR>
0

>  <SCORE.INTRA.POLAR.0>
0

>  <SCORE.INTRA.REPUL>
0

>  <SCORE.INTRA.REPUL.0>
0

>  <SCORE.INTRA.VDW>
-0.0185223

>  <SCORE.INTRA.VDW.0>
0.00790608

>  <SCORE.INTRA.norm>
0.00417958

>  <SCORE.RESTR>
0

>  <SCORE.RESTR.CAVITY>
0

>  <SCORE.RESTR.norm>
0

>  <SCORE.SYSTEM>
-1.51241

>  <SCORE.SYSTEM.CONST>
0

>  <SCORE.SYSTEM.DIHEDRAL>
0.437433

>  <SCORE.SYSTEM.POLAR>
-0.503174

>  <SCORE.SYSTEM.VDW>
-0.0203315

>  <SCORE.SYSTEM.norm>
-0.0945253

>  <SCORE.heavy>
16

>  <SCORE.norm>
-0.993712

>  <enum_code>
M

>  <enum_smi>
Cc1[nH+]n2c(O)c3c(nc2c1C#N)CCC3

>  <sha256>
39e1b0cb6462242f67993cb5678037f9b85a03408faf08abbd395fb60bce143b

>  <std_smi>
Cc1nn2c(O)c3c(nc2c1C#N)CCC3

>  <uuid>
e864d2bc-9563-4f49-9638-2dfc4e00e207

$$$$
e864d2bc-9563-4f49-9638-2dfc4e00e207
  rDOCK(R)          3D
libRbt.so/2013.1/901 2013/11/27
 18 20  0  0  0  0  0  0  0  0999 V2000
   -3.6511   29.9068    6.3443 C   0  0  0  0  0  0
   -2.8441   30.3430    5.2023 C   0  0  0  0  0  0
   -2.5037   31.6814    4.9268 N   0  3  0  0  0  0
   -1.6809   31.6619    3.6799 N   0  0  0  0  0  0
   -1.1415   32.7382    3.0674 C   0  0  0  0  0  0
   -1.3663   33.9545    3.6306 O   0  0  0  0  0  0
   -0.4303   32.4705    1.9734 C   0  0  0  0  0  0
   -0.3587   31.0372    1.5485 C   0  0  0  0  0  0
   -0.8645   29.9953    2.1293 N   0  0  0  0  0  0
   -1.5500   30.3338    3.2433 C   0  0  0  0  0  0
   -2.2648   29.4949    4.1745 C   0  0  0  0  0  0
   -2.3801   28.0889    4.0935 C   0  0  0  0  0  0
   -2.5182   26.9389    4.0936 N   0  0  0  0  0  0
    0.4351   30.9378    0.2775 C   0  0  0  0  0  0
    0.3704   32.3762   -0.2433 C   0  0  0  0  0  0
    0.3206   33.2888    0.9859 C   0  0  0  0  0  0
   -2.7376   32.5373    5.4354 H   0  0  0  0  0  0
   -1.0707   34.6331    2.9959 H   0  0  0  0  0  0
  1  2  1  0  0  0
  2  3  2  0  0  0
  3  4  1  0  0  0
  4  5  1  0  0  0
  5  6  1  0  0  0
  5  7  2  0  0  0
  7  8  1  0  0  0
  8  9  2  0  0  0
  9 10  1  0  0  0
 10 11  2  0  0  0
 11 12  1  0  0  0
 12 13  3  0  0  0
  8 14  1  0  0  0
 14 15  1  0  0  0
 15 16  1  0  0  0
 11  2  1  0  0  0
 10  4  1  0  0  0
 16  7  1  0  0  0
  3 17  1  0  0  0
  6 18  1  0  0  0
M  END
>  <CHROM.0>
-59.88758699,68.80593950

>  <CHROM.1>
-169.22711456,-1.40565393,31.02088303,3.08447115,2.69773515,-1.00772884,-2.94978749

>  <Name>
e864d2bc-9563-4f49-9638-2dfc4e00e207

>  <RI>
4.3464e+07

>  <Rbt.Current_Directory>
/data/work/jku/5V6S/work/40/8dba899c20c42488f2b1a17844994e

>  <Rbt.Executable>
rbdock ($Id: //depot/dev/client3/rdock/2013.1/src/exe/rbdock.cxx#4 $)

>  <Rbt.Library>
libRbt.so (2013.1, Build901 2013/11/27)

>  <Rbt.Parameter_File>
/rDock_2013.1_src/data/scripts/dock.prm

>  <Rbt.Receptor>
docking.prm

>  <SCORE>
-15.9327

>  <SCORE.INTER>
-14.4895

>  <SCORE.INTER.CONST>
1

>  <SCORE.INTER.POLAR>
-1.36846

>  <SCORE.INTER.REPUL>
0.0246578

>  <SCORE.INTER.ROT>
0

>  <SCORE.INTER.VDW>
-15.36

>  <SCORE.INTER.norm>
-0.905593

>  <SCORE.INTRA>
0.0704201

>  <SCORE.INTRA.DIHEDRAL>
0.179706

>  <SCORE.INTRA.DIHEDRAL.0>
0.000259708

>  <SCORE.INTRA.POLAR>
0

>  <SCORE.INTRA.POLAR.0>
0

>  <SCORE.INTRA.REPUL>
0

>  <SCORE.INTRA.REPUL.0>
0

>  <SCORE.INTRA.VDW>
-0.0194327

>  <SCORE.INTRA.VDW.0>
0.00790608

>  <SCORE.INTRA.norm>
0.00440126

>  <SCORE.RESTR>
0

>  <SCORE.RESTR.CAVITY>
0

>  <SCORE.RESTR.norm>
0

>  <SCORE.SYSTEM>
-1.51362

>  <SCORE.SYSTEM.CONST>
0

>  <SCORE.SYSTEM.DIHEDRAL>
0.383567

>  <SCORE.SYSTEM.POLAR>
-0.502852

>  <SCORE.SYSTEM.VDW>
0.00429578

>  <SCORE.SYSTEM.norm>
-0.0946011

>  <SCORE.heavy>
16

>  <SCORE.norm>
-0.995793

>  <enum_code>
M

>  <enum_smi>
Cc1[nH+]n2c(O)c3c(nc2c1C#N)CCC3

>  <sha256>
39e1b0cb6462242f67993cb5678037f9b85a03408faf08abbd395fb60bce143b

>  <std_smi>
Cc1nn2c(O)c3c(nc2c1C#N)CCC3

>  <uuid>
e864d2bc-9563-4f49-9638-2dfc4e00e207

$$$$
e864d2bc-9563-4f49-9638-2dfc4e00e207
  rDOCK(R)          3D
libRbt.so/2013.1/901 2013/11/27
 18 20  0  0  0  0  0  0  0  0999 V2000
   -8.4342   28.1646    3.9080 C   0  0  0  0  0  0
   -7.5096   27.0291    3.8718 C   0  0  0  0  0  0
   -7.7139   25.8532    3.1243 N   0  3  0  0  0  0
   -6.5324   24.9759    3.3818 N   0  0  0  0  0  0
   -6.3228   23.7506    2.8535 C   0  0  0  0  0  0
   -7.2716   23.2637    2.0111 O   0  0  0  0  0  0
   -5.1842   23.1633    3.2181 C   0  0  0  0  0  0
   -4.3191   23.9094    4.1851 C   0  0  0  0  0  0
   -4.5039   25.0865    4.6939 N   0  0  0  0  0  0
   -5.6616   25.6351    4.2644 C   0  0  0  0  0  0
   -6.2477   26.9144    4.5831 C   0  0  0  0  0  0
   -5.6863   27.8848    5.4432 C   0  0  0  0  0  0
   -5.2896   28.7259    6.1335 N   0  0  0  0  0  0
   -3.1153   23.0749    4.5167 C   0  0  0  0  0  0
   -3.5841   21.6758    4.1075 C   0  0  0  0  0  0
   -4.5368   21.8588    2.9222 C   0  0  0  0  0  0
   -8.4886   25.5909    2.5102 H   0  0  0  0  0  0
   -8.0305   23.8753    2.0357 H   0  0  0  0  0  0
  1  2  1  0  0  0
  2  3  2  0  0  0
  3  4  1  0  0  0
  4  5  1  0  0  0
  5  6  1  0  0  0
  5  7  2  0  0  0
  7  8  1  0  0  0
  8  9  2  0  0  0
  9 10  1  0  0  0
 10 11  2  0  0  0
 11 12  1  0  0  0
 12 13  3  0  0  0
  8 14  1  0  0  0
 14 15  1  0  0  0
 15 16  1  0  0  0
 11  2  1  0  0  0
 10  4  1  0  0  0
 16  7  1  0  0  0
  3 17  1  0  0  0
  6 18  1  0  0  0
M  END
>  <CHROM.0>
-59.88758699,-179.68381103

>  <CHROM.1>
-7.76334502,-5.78788145,25.02814615,3.91016719,2.07220716,-0.52322899,0.47569291

>  <Name>
e864d2bc-9563-4f49-9638-2dfc4e00e207

>  <RI>
4.3464e+07

>  <Rbt.Current_Directory>
/data/work/jku/5V6S/work/40/8dba899c20c42488f2b1a17844994e

>  <Rbt.Executable>
rbdock ($Id: //depot/dev/client3/rdock/2013.1/src/exe/rbdock.cxx#4 $)

>  <Rbt.Library>
libRbt.so (2013.1, Build901 2013/11/27)

>  <Rbt.Parameter_File>
/rDock_2013.1_src/data/scripts/dock.prm

>  <Rbt.Receptor>
docking.prm

>  <SCORE>
-17.3446

>  <SCORE.INTER>
-17.7297

>  <SCORE.INTER.CONST>
1

>  <SCORE.INTER.POLAR>
-2.49781

>  <SCORE.INTER.REPUL>
0.143106

>  <SCORE.INTER.ROT>
0

>  <SCORE.INTER.VDW>
-15.3527

>  <SCORE.INTER.norm>
-1.10811

>  <SCORE.INTRA>
0.656611

>  <SCORE.INTRA.DIHEDRAL>
0.0791003

>  <SCORE.INTRA.DIHEDRAL.0>
0.000259708

>  <SCORE.INTRA.POLAR>
0

>  <SCORE.INTRA.POLAR.0>
0

>  <SCORE.INTRA.REPUL>
0

>  <SCORE.INTRA.REPUL.0>
0

>  <SCORE.INTRA.VDW>
0.617061

>  <SCORE.INTRA.VDW.0>
0.00790608

>  <SCORE.INTRA.norm>
0.0410382

>  <SCORE.RESTR>
0

>  <SCORE.RESTR.CAVITY>
0

>  <SCORE.RESTR.norm>
0

>  <SCORE.SYSTEM>
-0.271464

>  <SCORE.SYSTEM.CONST>
0

>  <SCORE.SYSTEM.DIHEDRAL>
0.00812464

>  <SCORE.SYSTEM.VDW>
-0.275526

>  <SCORE.SYSTEM.norm>
-0.0169665

>  <SCORE.heavy>
16

>  <SCORE.norm>
-1.08404

>  <enum_code>
M

>  <enum_smi>
Cc1[nH+]n2c(O)c3c(nc2c1C#N)CCC3

>  <sha256>
39e1b0cb6462242f67993cb5678037f9b85a03408faf08abbd395fb60bce143b

>  <std_smi>
Cc1nn2c(O)c3c(nc2c1C#N)CCC3

>  <uuid>
e864d2bc-9563-4f49-9638-2dfc4e00e207

$$$$
fc9621bb-c2d3-4513-aa37-d80aa8dc7c1e
  rDOCK(R)          3D
libRbt.so/2013.1/901 2013/11/27
 16 18  0  0  0  0  0  0  0  0999 V2000
    0.0866   32.5386    0.0878 C   0  0  0  0  0  0
   -0.5501   31.6200    1.0623 C   0  0  0  0  0  0
   -0.1589   30.3496    1.1225 N   0  0  0  0  0  0
   -0.9288   29.7606    2.1080 N   0  0  0  0  0  0
   -0.9287   28.3929    2.5811 C   0  0  0  0  0  0
   -0.1182   27.5857    2.0393 O   0  5  0  0  0  0
   -1.8196   28.1358    3.5572 C   0  0  0  0  0  0
   -2.6721   29.2310    4.0828 C   0  0  0  0  0  0
   -2.7019   30.4591    3.6770 N   0  0  0  0  0  0
   -1.8138   30.7335    2.6641 C   0  0  0  0  0  0
   -1.5642   31.9063    1.9889 C   0  0  0  0  0  0
   -2.2147   33.1525    2.2053 C   0  0  0  0  0  0
   -2.7120   34.1951    2.3383 N   0  0  0  0  0  0
   -3.5421   28.7159    5.1873 C   0  0  0  0  0  0
   -2.8026   27.4381    5.5895 C   0  0  0  0  0  0
   -2.1427   26.8960    4.3179 C   0  0  0  0  0  0
  1  2  1  0  0  0
  2  3  2  0  0  0
  3  4  1  0  0  0
  4  5  1  0  0  0
  5  6  1  0  0  0
  5  7  2  0  0  0
  7  8  1  0  0  0
  8  9  2  0  0  0
  9 10  1  0  0  0
 10 11  2  0  0  0
 11 12  1  0  0  0
 12 13  3  0  0  0
  8 14  1  0  0  0
 14 15  1  0  0  0
 15 16  1  0  0  0
 11  2  1  0  0  0
 10  4  1  0  0  0
 16  7  1  0  0  0
M  END
>  <CHROM.0>
-59.88758699,68.78777365

>  <CHROM.1>
-1.63959339,30.03229987,2.78156763,-1.29607321,-0.78881608,2.77841748

>  <Name>
fc9621bb-c2d3-4513-aa37-d80aa8dc7c1e

>  <RI>
4.1887e+07

>  <Rbt.Current_Directory>
/data/work/jku/5V6S/work/40/8dba899c20c42488f2b1a17844994e

>  <Rbt.Executable>
rbdock ($Id: //depot/dev/client3/rdock/2013.1/src/exe/rbdock.cxx#4 $)

>  <Rbt.Library>
libRbt.so (2013.1, Build901 2013/11/27)

>  <Rbt.Parameter_File>
/rDock_2013.1_src/data/scripts/dock.prm

>  <Rbt.Receptor>
docking.prm

>  <SCORE>
-12.6698

>  <SCORE.INTER>
-11.1562

>  <SCORE.INTER.CONST>
1

>  <SCORE.INTER.POLAR>
-0.349262

>  <SCORE.INTER.REPUL>
0.00752822

>  <SCORE.INTER.ROT>
0

>  <SCORE.INTER.VDW>
-15.4063

>  <SCORE.INTER.norm>
-0.697261

>  <SCORE.INTRA>
0

>  <SCORE.INTRA.DIHEDRAL>
0

>  <SCORE.INTRA.DIHEDRAL.0>
0

>  <SCORE.INTRA.POLAR>
0

>  <SCORE.INTRA.POLAR.0>
0

>  <SCORE.INTRA.REPUL>
0

>  <SCORE.INTRA.REPUL.0>
0

>  <SCORE.INTRA.VDW>
0

>  <SCORE.INTRA.VDW.0>
0

>  <SCORE.INTRA.norm>
0

>  <SCORE.RESTR>
0

>  <SCORE.RESTR.CAVITY>
0

>  <SCORE.RESTR.norm>
0

>  <SCORE.SYSTEM>
-1.5136

>  <SCORE.SYSTEM.CONST>
0

>  <SCORE.SYSTEM.DIHEDRAL>
0.382045

>  <SCORE.SYSTEM.POLAR>
-0.502838

>  <SCORE.SYSTEM.VDW>
0.00502828

>  <SCORE.SYSTEM.norm>
-0.0945999

>  <SCORE.heavy>
16

>  <SCORE.norm>
-0.791861

>  <enum_code>
M

>  <enum_smi>
Cc1nn2c([O-])c3c(nc2c1C#N)CCC3

>  <sha256>
39e1b0cb6462242f67993cb5678037f9b85a03408faf08abbd395fb60bce143b

>  <std_smi>
Cc1nn2c(O)c3c(nc2c1C#N)CCC3

>  <uuid>
fc9621bb-c2d3-4513-aa37-d80aa8dc7c1e

$$$$
fc9621bb-c2d3-4513-aa37-d80aa8dc7c1e
  rDOCK(R)          3D
libRbt.so/2013.1/901 2013/11/27
 16 18  0  0  0  0  0  0  0  0999 V2000
   -8.3062   27.3258    4.1138 C   0  0  0  0  0  0
   -6.9619   26.8126    4.4721 C   0  0  0  0  0  0
   -6.0201   27.6604    4.8784 N   0  0  0  0  0  0
   -4.8989   26.8918    5.1295 N   0  0  0  0  0  0
   -3.5866   27.2997    5.5832 C   0  0  0  0  0  0
   -3.3969   28.5333    5.7938 O   0  5  0  0  0  0
   -2.7016   26.2945    5.7201 C   0  0  0  0  0  0
   -3.1252   24.8987    5.4469 C   0  0  0  0  0  0
   -4.2854   24.5027    5.0335 N   0  0  0  0  0  0
   -5.1950   25.5198    4.8663 C   0  0  0  0  0  0
   -6.5053   25.4859    4.4474 C   0  0  0  0  0  0
   -7.2351   24.3245    4.0715 C   0  0  0  0  0  0
   -7.8796   23.4106    3.7533 N   0  0  0  0  0  0
   -1.9898   23.9590    5.7123 C   0  0  0  0  0  0
   -1.0873   24.8131    6.6052 C   0  0  0  0  0  0
   -1.2776   26.2657    6.1575 C   0  0  0  0  0  0
  1  2  1  0  0  0
  2  3  2  0  0  0
  3  4  1  0  0  0
  4  5  1  0  0  0
  5  6  1  0  0  0
  5  7  2  0  0  0
  7  8  1  0  0  0
  8  9  2  0  0  0
  9 10  1  0  0  0
 10 11  2  0  0  0
 11 12  1  0  0  0
 12 13  3  0  0  0
  8 14  1  0  0  0
 14 15  1  0  0  0
 15 16  1  0  0  0
 11  2  1  0  0  0
 10  4  1  0  0  0
 16  7  1  0  0  0
M  END
>  <CHROM.0>
-59.88758699,68.72569405

>  <CHROM.1>
-4.63261976,25.91104459,5.12439583,3.11924896,0.32423936,-3.03705932

>  <Name>
fc9621bb-c2d3-4513-aa37-d80aa8dc7c1e

>  <RI>
4.1887e+07

>  <Rbt.Current_Directory>
/data/work/jku/5V6S/work/40/8dba899c20c42488f2b1a17844994e

>  <Rbt.Executable>
rbdock ($Id: //depot/dev/client3/rdock/2013.1/src/exe/rbdock.cxx#4 $)

>  <Rbt.Library>
libRbt.so (2013.1, Build901 2013/11/27)

>  <Rbt.Parameter_File>
/rDock_2013.1_src/data/scripts/dock.prm

>  <Rbt.Receptor>
docking.prm

>  <SCORE>
-11.6798

>  <SCORE.INTER>
-10.1663

>  <SCORE.INTER.CONST>
1

>  <SCORE.INTER.POLAR>
0

>  <SCORE.INTER.REPUL>
0

>  <SCORE.INTER.ROT>
0

>  <SCORE.INTER.VDW>
-15.5663

>  <SCORE.INTER.norm>
-0.635396

>  <SCORE.INTRA>
0

>  <SCORE.INTRA.DIHEDRAL>
0

>  <SCORE.INTRA.DIHEDRAL.0>
0

>  <SCORE.INTRA.POLAR>
0

>  <SCORE.INTRA.POLAR.0>
0

>  <SCORE.INTRA.REPUL>
0

>  <SCORE.INTRA.REPUL.0>
0

>  <SCORE.INTRA.VDW>
0

>  <SCORE.INTRA.VDW.0>
0

>  <SCORE.INTRA.norm>
0

>  <SCORE.RESTR>
0

>  <SCORE.RESTR.CAVITY>
0

>  <SCORE.RESTR.norm>
0

>  <SCORE.SYSTEM>
-1.51351

>  <SCORE.SYSTEM.CONST>
0

>  <SCORE.SYSTEM.DIHEDRAL>
0.376866

>  <SCORE.SYSTEM.POLAR>
-0.502788

>  <SCORE.SYSTEM.VDW>
0.00753724

>  <SCORE.SYSTEM.norm>
-0.0945943

>  <SCORE.heavy>
16

>  <SCORE.norm>
-0.729991

>  <enum_code>
M

>  <enum_smi>
Cc1nn2c([O-])c3c(nc2c1C#N)CCC3

>  <sha256>
39e1b0cb6462242f67993cb5678037f9b85a03408faf08abbd395fb60bce143b

>  <std_smi>
Cc1nn2c(O)c3c(nc2c1C#N)CCC3

>  <uuid>
fc9621bb-c2d3-4513-aa37-d80aa8dc7c1e

$$$$
fc9621bb-c2d3-4513-aa37-d80aa8dc7c1e
  rDOCK(R)          3D
libRbt.so/2013.1/901 2013/11/27
 16 18  0  0  0  0  0  0  0  0999 V2000
   -0.4877   24.7444    6.2455 C   0  0  0  0  0  0
   -1.8862   24.9637    5.8039 C   0  0  0  0  0  0
   -2.4417   26.1643    5.9479 N   0  0  0  0  0  0
   -3.7281   26.0499    5.4550 N   0  0  0  0  0  0
   -4.7752   27.0458    5.3766 C   0  0  0  0  0  0
   -4.5146   28.2054    5.8118 O   0  5  0  0  0  0
   -5.9316   26.6050    4.8465 C   0  0  0  0  0  0
   -6.0343   25.2047    4.3657 C   0  0  0  0  0  0
   -5.1217   24.2898    4.4286 N   0  0  0  0  0  0
   -3.9412   24.7171    4.9886 C   0  0  0  0  0  0
   -2.7658   24.0398    5.2193 C   0  0  0  0  0  0
   -2.5121   22.6738    4.9148 C   0  0  0  0  0  0
   -2.2489   21.5642    4.6884 N   0  0  0  0  0  0
   -7.3907   24.9644    3.7784 C   0  0  0  0  0  0
   -7.8614   26.3934    3.4994 C   0  0  0  0  0  0
   -7.2330   27.2796    4.5793 C   0  0  0  0  0  0
  1  2  1  0  0  0
  2  3  2  0  0  0
  3  4  1  0  0  0
  4  5  1  0  0  0
  5  6  1  0  0  0
  5  7  2  0  0  0
  7  8  1  0  0  0
  8  9  2  0  0  0
  9 10  1  0  0  0
 10 11  2  0  0  0
 11 12  1  0  0  0
 12 13  3  0  0  0
  8 14  1  0  0  0
 14 15  1  0  0  0
 15 16  1  0  0  0
 11  2  1  0  0  0
 10  4  1  0  0  0
 16  7  1  0  0  0
M  END
>  <CHROM.0>
-59.88758699,69.04052019

>  <CHROM.1>
-4.31049871,25.34896820,5.00517137,-0.40258497,-0.36145214,0.29328936

>  <Name>
fc9621bb-c2d3-4513-aa37-d80aa8dc7c1e

>  <RI>
4.1887e+07

>  <Rbt.Current_Directory>
/data/work/jku/5V6S/work/40/8dba899c20c42488f2b1a17844994e

>  <Rbt.Executable>
rbdock ($Id: //depot/dev/client3/rdock/2013.1/src/exe/rbdock.cxx#4 $)

>  <Rbt.Library>
libRbt.so (2013.1, Build901 2013/11/27)

>  <Rbt.Parameter_File>
/rDock_2013.1_src/data/scripts/dock.prm

>  <Rbt.Receptor>
docking.prm

>  <SCORE>
-12.1976

>  <SCORE.INTER>
-10.684

>  <SCORE.INTER.CONST>
1

>  <SCORE.INTER.POLAR>
-0.0474218

>  <SCORE.INTER.REPUL>
0

>  <SCORE.INTER.ROT>
0

>  <SCORE.INTER.VDW>
-15.9228

>  <SCORE.INTER.norm>
-0.667749

>  <SCORE.INTRA>
0

>  <SCORE.INTRA.DIHEDRAL>
0

>  <SCORE.INTRA.DIHEDRAL.0>
0

>  <SCORE.INTRA.POLAR>
0

>  <SCORE.INTRA.POLAR.0>
0

>  <SCORE.INTRA.REPUL>
0

>  <SCORE.INTRA.REPUL.0>
0

>  <SCORE.INTRA.VDW>
0

>  <SCORE.INTRA.VDW.0>
0

>  <SCORE.INTRA.norm>
0

>  <SCORE.RESTR>
0

>  <SCORE.RESTR.CAVITY>
0

>  <SCORE.RESTR.norm>
0

>  <SCORE.SYSTEM>
-1.51359

>  <SCORE.SYSTEM.CONST>
0

>  <SCORE.SYSTEM.DIHEDRAL>
0.403483

>  <SCORE.SYSTEM.POLAR>
-0.50301

>  <SCORE.SYSTEM.VDW>
-0.00509518

>  <SCORE.SYSTEM.norm>
-0.0945992

>  <SCORE.heavy>
16

>  <SCORE.norm>
-0.762349

>  <enum_code>
M

>  <enum_smi>
Cc1nn2c([O-])c3c(nc2c1C#N)CCC3

>  <sha256>
39e1b0cb6462242f67993cb5678037f9b85a03408faf08abbd395fb60bce143b

>  <std_smi>
Cc1nn2c(O)c3c(nc2c1C#N)CCC3

>  <uuid>
fc9621bb-c2d3-4513-aa37-d80aa8dc7c1e

$$$$
fc9621bb-c2d3-4513-aa37-d80aa8dc7c1e
  rDOCK(R)          3D
libRbt.so/2013.1/901 2013/11/27
 16 18  0  0  0  0  0  0  0  0999 V2000
    0.0770   32.5443    0.0897 C   0  0  0  0  0  0
   -0.5557   31.6202    1.0617 C   0  0  0  0  0  0
   -0.1618   30.3503    1.1155 N   0  0  0  0  0  0
   -0.9284   29.7555    2.1001 N   0  0  0  0  0  0
   -0.9245   28.3858    2.5672 C   0  0  0  0  0  0
   -0.1136   27.5825    2.0201 O   0  5  0  0  0  0
   -1.8127   28.1227    3.5442 C   0  0  0  0  0  0
   -2.6663   29.2138    4.0763 C   0  0  0  0  0  0
   -2.6994   30.4436    3.6760 N   0  0  0  0  0  0
   -1.8141   30.7242    2.6624 C   0  0  0  0  0  0
   -1.5684   31.9004    1.9917 C   0  0  0  0  0  0
   -2.2209   33.1444    2.2149 C   0  0  0  0  0  0
   -2.7199   34.1854    2.3535 N   0  0  0  0  0  0
   -3.5329   28.6922    5.1805 C   0  0  0  0  0  0
   -2.7900   27.4142    5.5756 C   0  0  0  0  0  0
   -2.1317   26.8790    4.3001 C   0  0  0  0  0  0
  1  2  1  0  0  0
  2  3  2  0  0  0
  3  4  1  0  0  0
  4  5  1  0  0  0
  5  6  1  0  0  0
  5  7  2  0  0  0
  7  8  1  0  0  0
  8  9  2  0  0  0
  9 10  1  0  0  0
 10 11  2  0  0  0
 11 12  1  0  0  0
 12 13  3  0  0  0
  8 14  1  0  0  0
 14 15  1  0  0  0
 15 16  1  0  0  0
 11  2  1  0  0  0
 10  4  1  0  0  0
 16  7  1  0  0  0
M  END
>  <CHROM.0>
-59.88758699,68.69968298

>  <CHROM.1>
-1.63826340,30.02286096,2.77636322,-1.29983113,-0.79014158,2.78009134

>  <Name>
fc9621bb-c2d3-4513-aa37-d80aa8dc7c1e

>  <RI>
4.1887e+07

>  <Rbt.Current_Directory>
/data/work/jku/5V6S/work/40/8dba899c20c42488f2b1a17844994e

>  <Rbt.Executable>
rbdock ($Id: //depot/dev/client3/rdock/2013.1/src/exe/rbdock.cxx#4 $)

>  <Rbt.Library>
libRbt.so (2013.1, Build901 2013/11/27)

>  <Rbt.Parameter_File>
/rDock_2013.1_src/data/scripts/dock.prm

>  <Rbt.Receptor>
docking.prm

>  <SCORE>
-12.7089

>  <SCORE.INTER>
-11.1954

>  <SCORE.INTER.CONST>
1

>  <SCORE.INTER.POLAR>
-0.352801

>  <SCORE.INTER.REPUL>
0.00653817

>  <SCORE.INTER.ROT>
0

>  <SCORE.INTER.VDW>
-15.4286

>  <SCORE.INTER.norm>
-0.699715

>  <SCORE.INTRA>
0

>  <SCORE.INTRA.DIHEDRAL>
0

>  <SCORE.INTRA.DIHEDRAL.0>
0

>  <SCORE.INTRA.POLAR>
0

>  <SCORE.INTRA.POLAR.0>
0

>  <SCORE.INTRA.REPUL>
0

>  <SCORE.INTRA.REPUL.0>
0

>  <SCORE.INTRA.VDW>
0

>  <SCORE.INTRA.VDW.0>
0

>  <SCORE.INTRA.norm>
0

>  <SCORE.RESTR>
0

>  <SCORE.RESTR.CAVITY>
0

>  <SCORE.RESTR.norm>
0

>  <SCORE.SYSTEM>
-1.51346

>  <SCORE.SYSTEM.CONST>
0

>  <SCORE.SYSTEM.DIHEDRAL>
0.374706

>  <SCORE.SYSTEM.POLAR>
-0.502766

>  <SCORE.SYSTEM.VDW>
0.00859113

>  <SCORE.SYSTEM.norm>
-0.0945912

>  <SCORE.heavy>
16

>  <SCORE.norm>
-0.794306

>  <enum_code>
M

>  <enum_smi>
Cc1nn2c([O-])c3c(nc2c1C#N)CCC3

>  <sha256>
39e1b0cb6462242f67993cb5678037f9b85a03408faf08abbd395fb60bce143b

>  <std_smi>
Cc1nn2c(O)c3c(nc2c1C#N)CCC3

>  <uuid>
fc9621bb-c2d3-4513-aa37-d80aa8dc7c1e

$$$$
fc9621bb-c2d3-4513-aa37-d80aa8dc7c1e
  rDOCK(R)          3D
libRbt.so/2013.1/901 2013/11/27
 16 18  0  0  0  0  0  0  0  0999 V2000
   -7.9159   27.1176    4.1593 C   0  0  0  0  0  0
   -6.5466   26.6769    4.5198 C   0  0  0  0  0  0
   -6.0969   25.5025    4.0849 N   0  0  0  0  0  0
   -4.8133   25.3786    4.5827 N   0  0  0  0  0  0
   -3.8672   24.2945    4.4278 C   0  0  0  0  0  0
   -4.2293   23.2944    3.7417 O   0  5  0  0  0  0
   -2.6911   24.4808    5.0561 C   0  0  0  0  0  0
   -2.4439   25.7432    5.7961 C   0  0  0  0  0  0
   -3.2696   26.7257    5.9596 N   0  0  0  0  0  0
   -4.4845   26.5416    5.3433 C   0  0  0  0  0  0
   -5.5943   27.3539    5.2969 C   0  0  0  0  0  0
   -5.7279   28.6265    5.9180 C   0  0  0  0  0  0
   -5.8933   29.6700    6.4033 N   0  0  0  0  0  0
   -1.0590   25.7386    6.3658 C   0  0  0  0  0  0
   -0.3799   24.6657    5.5120 C   0  0  0  0  0  0
   -1.4624   23.6434    5.1518 C   0  0  0  0  0  0
  1  2  1  0  0  0
  2  3  2  0  0  0
  3  4  1  0  0  0
  4  5  1  0  0  0
  5  6  1  0  0  0
  5  7  2  0  0  0
  7  8  1  0  0  0
  8  9  2  0  0  0
  9 10  1  0  0  0
 10 11  2  0  0  0
 11 12  1  0  0  0
 12 13  3  0  0  0
  8 14  1  0  0  0
 14 15  1  0  0  0
 15 16  1  0  0  0
 11  2  1  0  0  0
 10  4  1  0  0  0
 16  7  1  0  0  0
M  END
>  <CHROM.0>
-59.88758699,69.29094953

>  <CHROM.1>
-4.15134257,25.92776986,5.12402208,2.64323666,-0.33818348,0.48201499

>  <Name>
fc9621bb-c2d3-4513-aa37-d80aa8dc7c1e

>  <RI>
4.1887e+07

>  <Rbt.Current_Directory>
/data/work/jku/5V6S/work/40/8dba899c20c42488f2b1a17844994e

>  <Rbt.Executable>
rbdock ($Id: //depot/dev/client3/rdock/2013.1/src/exe/rbdock.cxx#4 $)

>  <Rbt.Library>
libRbt.so (2013.1, Build901 2013/11/27)

>  <Rbt.Parameter_File>
/rDock_2013.1_src/data/scripts/dock.prm

>  <Rbt.Receptor>
docking.prm

>  <SCORE>
-12.4885

>  <SCORE.INTER>
-10.9755

>  <SCORE.INTER.CONST>
1

>  <SCORE.INTER.POLAR>
0

>  <SCORE.INTER.REPUL>
0.00952919

>  <SCORE.INTER.ROT>
0

>  <SCORE.INTER.VDW>
-16.4231

>  <SCORE.INTER.norm>
-0.685968

>  <SCORE.INTRA>
0

>  <SCORE.INTRA.DIHEDRAL>
0

>  <SCORE.INTRA.DIHEDRAL.0>
0

>  <SCORE.INTRA.POLAR>
0

>  <SCORE.INTRA.POLAR.0>
0

>  <SCORE.INTRA.REPUL>
0

>  <SCORE.INTRA.REPUL.0>
0

>  <SCORE.INTRA.VDW>
0

>  <SCORE.INTRA.VDW.0>
0

>  <SCORE.INTRA.norm>
0

>  <SCORE.RESTR>
0

>  <SCORE.RESTR.CAVITY>
0

>  <SCORE.RESTR.norm>
0

>  <SCORE.SYSTEM>
-1.51298

>  <SCORE.SYSTEM.CONST>
0

>  <SCORE.SYSTEM.DIHEDRAL>
0.425277

>  <SCORE.SYSTEM.POLAR>
-0.50313

>  <SCORE.SYSTEM.VDW>
-0.0149822

>  <SCORE.SYSTEM.norm>
-0.0945615

>  <SCORE.heavy>
16

>  <SCORE.norm>
-0.780529

>  <enum_code>
M

>  <enum_smi>
Cc1nn2c([O-])c3c(nc2c1C#N)CCC3

>  <sha256>
39e1b0cb6462242f67993cb5678037f9b85a03408faf08abbd395fb60bce143b

>  <std_smi>
Cc1nn2c(O)c3c(nc2c1C#N)CCC3

>  <uuid>
fc9621bb-c2d3-4513-aa37-d80aa8dc7c1e

$$$$
bd9c2487-db50-4966-8736-59f8ff3b9d63
  rDOCK(R)          3D
libRbt.so/2013.1/901 2013/11/27
 18 20  0  0  0  0  0  0  0  0999 V2000
   -4.4429   21.1295    3.2574 C   0  0  0  0  0  0
   -4.5049   22.5628    3.6544 C   0  0  0  0  0  0
   -5.6915   23.2272    3.5938 N   0  0  0  0  0  0
   -5.4681   24.5166    4.0091 N   0  0  0  0  0  0
   -6.3387   25.6201    4.1331 C   0  0  0  0  0  0
   -7.6611   25.4375    3.7903 O   0  0  0  0  0  0
   -5.8574   26.8010    4.5650 C   0  0  0  0  0  0
   -4.4257   26.9558    4.9443 C   0  0  0  0  0  0
   -3.5305   26.0398    4.8636 N   0  3  0  0  0  0
   -4.0388   24.7503    4.3804 C   0  0  0  0  0  0
   -3.4200   23.3893    4.1212 C   0  0  0  0  0  0
   -2.0556   23.0838    4.3243 C   0  0  0  0  0  0
   -0.9235   22.9611    4.5311 N   0  0  0  0  0  0
   -4.1078   28.3207    5.4399 C   0  0  0  0  0  0
   -5.5193   28.8247    5.7748 C   0  0  0  0  0  0
   -6.4947   28.1327    4.8081 C   0  0  0  0  0  0
   -7.8298   24.5382    3.4613 H   0  0  0  0  0  0
   -2.5487   26.1553    5.1213 H   0  0  0  0  0  0
  1  2  1  0  0  0
  2  3  2  0  0  0
  3  4  1  0  0  0
  4  5  1  0  0  0
  5  6  1  0  0  0
  5  7  2  0  0  0
  7  8  1  0  0  0
  8  9  2  0  0  0
  9 10  1  0  0  0
 10 11  2  0  0  0
 11 12  1  0  0  0
 12 13  3  0  0  0
  8 14  1  0  0  0
 14 15  1  0  0  0
 15 16  1  0  0  0
 11  2  1  0  0  0
 10  4  1  0  0  0
 16  7  1  0  0  0
  6 17  1  0  0  0
  9 18  1  0  0  0
M  END
>  <CHROM.0>
-59.88758699,69.01433788

>  <CHROM.1>
-2.08732213,-4.70508649,25.12088111,4.38080830,1.14240959,0.20971956,-2.83396357

>  <Name>
bd9c2487-db50-4966-8736-59f8ff3b9d63

>  <RI>
2.76411e+07

>  <Rbt.Current_Directory>
/data/work/jku/5V6S/work/40/8dba899c20c42488f2b1a17844994e

>  <Rbt.Executable>
rbdock ($Id: //depot/dev/client3/rdock/2013.1/src/exe/rbdock.cxx#4 $)

>  <Rbt.Library>
libRbt.so (2013.1, Build901 2013/11/27)

>  <Rbt.Parameter_File>
/rDock_2013.1_src/data/scripts/dock.prm

>  <Rbt.Receptor>
docking.prm

>  <SCORE>
-10.2366

>  <SCORE.INTER>
-8.48247

>  <SCORE.INTER.CONST>
1

>  <SCORE.INTER.POLAR>
0

>  <SCORE.INTER.REPUL>
0

>  <SCORE.INTER.ROT>
0

>  <SCORE.INTER.VDW>
-13.8825

>  <SCORE.INTER.norm>
-0.530154

>  <SCORE.INTRA>
-0.240498

>  <SCORE.INTRA.DIHEDRAL>
0.00711062

>  <SCORE.INTRA.DIHEDRAL.0>
0.00111349

>  <SCORE.INTRA.POLAR>
-0.0185866

>  <SCORE.INTRA.POLAR.0>
0

>  <SCORE.INTRA.REPUL>
0

>  <SCORE.INTRA.REPUL.0>
0

>  <SCORE.INTRA.VDW>
-0.180858

>  <SCORE.INTRA.VDW.0>
0.0785026

>  <SCORE.INTRA.norm>
-0.0150311

>  <SCORE.RESTR>
0

>  <SCORE.RESTR.CAVITY>
0

>  <SCORE.RESTR.norm>
0

>  <SCORE.SYSTEM>
-1.51362

>  <SCORE.SYSTEM.CONST>
0

>  <SCORE.SYSTEM.DIHEDRAL>
0.401236

>  <SCORE.SYSTEM.POLAR>
-0.502995

>  <SCORE.SYSTEM.VDW>
-0.00405326

>  <SCORE.SYSTEM.norm>
-0.0946011

>  <SCORE.heavy>
16

>  <SCORE.norm>
-0.639786

>  <enum_code>
M

>  <enum_smi>
Cc1nn2c(O)c3c([nH+]c2c1C#N)CCC3

>  <sha256>
39e1b0cb6462242f67993cb5678037f9b85a03408faf08abbd395fb60bce143b

>  <std_smi>
Cc1nn2c(O)c3c(nc2c1C#N)CCC3

>  <uuid>
bd9c2487-db50-4966-8736-59f8ff3b9d63

$$$$
bd9c2487-db50-4966-8736-59f8ff3b9d63
  rDOCK(R)          3D
libRbt.so/2013.1/901 2013/11/27
 18 20  0  0  0  0  0  0  0  0999 V2000
   -4.5835   26.9062    3.0367 C   0  0  0  0  0  0
   -3.7229   28.0720    2.6961 C   0  0  0  0  0  0
   -3.4549   29.0107    3.6448 N   0  0  0  0  0  0
   -2.6499   29.9637    3.0716 N   0  0  0  0  0  0
   -2.0877   31.1470    3.5956 C   0  0  0  0  0  0
   -2.3584   31.4601    4.9104 O   0  0  0  0  0  0
   -1.3256   31.9271    2.8061 C   0  0  0  0  0  0
   -1.0395   31.5468    1.3950 C   0  0  0  0  0  0
   -1.4999   30.5101    0.7949 N   0  3  0  0  0  0
   -2.3444   29.6578    1.6403 C   0  0  0  0  0  0
   -3.0988   28.3584    1.4286 C   0  0  0  0  0  0
   -3.1272   27.6442    0.2098 C   0  0  0  0  0  0
   -3.0707   27.1558   -0.8379 N   0  0  0  0  0  0
   -0.1417   32.5142    0.7110 C   0  0  0  0  0  0
    0.4622   33.2324    1.9267 C   0  0  0  0  0  0
   -0.5946   33.2108    3.0436 C   0  0  0  0  0  0
   -3.2997   31.3440    5.1246 H   0  0  0  0  0  0
   -1.3027   30.2586   -0.1755 H   0  0  0  0  0  0
  1  2  1  0  0  0
  2  3  2  0  0  0
  3  4  1  0  0  0
  4  5  1  0  0  0
  5  6  1  0  0  0
  5  7  2  0  0  0
  7  8  1  0  0  0
  8  9  2  0  0  0
  9 10  1  0  0  0
 10 11  2  0  0  0
 11 12  1  0  0  0
 12 13  3  0  0  0
  8 14  1  0  0  0
 14 15  1  0  0  0
 15 16  1  0  0  0
 11  2  1  0  0  0
 10  4  1  0  0  0
 16  7  1  0  0  0
  6 17  1  0  0  0
  9 18  1  0  0  0
M  END
>  <CHROM.0>
-59.88758699,69.21179908

>  <CHROM.1>
-45.21529293,-2.16412463,30.17315229,2.17335297,2.57344319,-0.91214900,-2.08538851

>  <Name>
bd9c2487-db50-4966-8736-59f8ff3b9d63

>  <RI>
2.76411e+07

>  <Rbt.Current_Directory>
/data/work/jku/5V6S/work/40/8dba899c20c42488f2b1a17844994e

>  <Rbt.Executable>
rbdock ($Id: //depot/dev/client3/rdock/2013.1/src/exe/rbdock.cxx#4 $)

>  <Rbt.Library>
libRbt.so (2013.1, Build901 2013/11/27)

>  <Rbt.Parameter_File>
/rDock_2013.1_src/data/scripts/dock.prm

>  <Rbt.Receptor>
docking.prm

>  <SCORE>
-11.2253

>  <SCORE.INTER>
-11.1546

>  <SCORE.INTER.CONST>
1

>  <SCORE.INTER.POLAR>
-1.40014

>  <SCORE.INTER.REPUL>
0

>  <SCORE.INTER.ROT>
0

>  <SCORE.INTER.VDW>
-11.7941

>  <SCORE.INTER.norm>
-0.697161

>  <SCORE.INTRA>
0.972954

>  <SCORE.INTRA.DIHEDRAL>
2.43951

>  <SCORE.INTRA.DIHEDRAL.0>
0.00111349

>  <SCORE.INTRA.POLAR>
0

>  <SCORE.INTRA.POLAR.0>
0

>  <SCORE.INTRA.REPUL>
0

>  <SCORE.INTRA.REPUL.0>
0

>  <SCORE.INTRA.VDW>
-0.2468

>  <SCORE.INTRA.VDW.0>
0.0785026

>  <SCORE.INTRA.norm>
0.0608096

>  <SCORE.RESTR>
0.469589

>  <SCORE.RESTR.CAVITY>
0.469589

>  <SCORE.RESTR.norm>
0.0293493

>  <SCORE.SYSTEM>
-1.51324

>  <SCORE.SYSTEM.CONST>
0

>  <SCORE.SYSTEM.DIHEDRAL>
0.418329

>  <SCORE.SYSTEM.POLAR>
-0.503097

>  <SCORE.SYSTEM.VDW>
-0.0118727

>  <SCORE.SYSTEM.norm>
-0.0945774

>  <SCORE.heavy>
16

>  <SCORE.norm>
-0.70158

>  <enum_code>
M

>  <enum_smi>
Cc1nn2c(O)c3c([nH+]c2c1C#N)CCC3

>  <sha256>
39e1b0cb6462242f67993cb5678037f9b85a03408faf08abbd395fb60bce143b

>  <std_smi>
Cc1nn2c(O)c3c(nc2c1C#N)CCC3

>  <uuid>
bd9c2487-db50-4966-8736-59f8ff3b9d63

$$$$
bd9c2487-db50-4966-8736-59f8ff3b9d63
  rDOCK(R)          3D
libRbt.so/2013.1/901 2013/11/27
 18 20  0  0  0  0  0  0  0  0999 V2000
   -3.0143   26.4732    4.9456 C   0  0  0  0  0  0
   -2.4601   27.6884    4.2885 C   0  0  0  0  0  0
   -1.8620   27.5813    3.0704 N   0  0  0  0  0  0
   -1.4450   28.8357    2.6998 N   0  0  0  0  0  0
   -0.7695   29.2911    1.5476 C   0  0  0  0  0  0
   -0.4392   28.3605    0.5860 O   0  0  0  0  0  0
   -0.4637   30.5968    1.4292 C   0  0  0  0  0  0
   -0.8534   31.5766    2.4807 C   0  0  0  0  0  0
   -1.4537   31.2918    3.5786 N   0  3  0  0  0  0
   -1.7806   29.8686    3.7274 C   0  0  0  0  0  0
   -2.4715   29.0386    4.7933 C   0  0  0  0  0  0
   -2.9897   29.5632    5.9986 C   0  0  0  0  0  0
   -3.3714   30.1129    6.9427 N   0  0  0  0  0  0
   -0.4666   32.9704    2.1378 C   0  0  0  0  0  0
   -0.2482   32.8283    0.6244 C   0  0  0  0  0  0
    0.2247   31.3886    0.3625 C   0  0  0  0  0  0
   -0.2281   28.7785   -0.2660 H   0  0  0  0  0  0
   -1.7134   31.9694    4.2976 H   0  0  0  0  0  0
  1  2  1  0  0  0
  2  3  2  0  0  0
  3  4  1  0  0  0
  4  5  1  0  0  0
  5  6  1  0  0  0
  5  7  2  0  0  0
  7  8  1  0  0  0
  8  9  2  0  0  0
  9 10  1  0  0  0
 10 11  2  0  0  0
 11 12  1  0  0  0
 12 13  3  0  0  0
  8 14  1  0  0  0
 14 15  1  0  0  0
 15 16  1  0  0  0
 11  2  1  0  0  0
 10  4  1  0  0  0
 16  7  1  0  0  0
  6 17  1  0  0  0
  9 18  1  0  0  0
M  END
>  <CHROM.0>
-59.88758699,-62.41050386

>  <CHROM.1>
162.86114507,-1.47129420,29.82927733,3.02584568,-2.81311474,1.09222991,0.29167239

>  <Name>
bd9c2487-db50-4966-8736-59f8ff3b9d63

>  <RI>
2.76411e+07

>  <Rbt.Current_Directory>
/data/work/jku/5V6S/work/40/8dba899c20c42488f2b1a17844994e

>  <Rbt.Executable>
rbdock ($Id: //depot/dev/client3/rdock/2013.1/src/exe/rbdock.cxx#4 $)

>  <Rbt.Library>
libRbt.so (2013.1, Build901 2013/11/27)

>  <Rbt.Parameter_File>
/rDock_2013.1_src/data/scripts/dock.prm

>  <Rbt.Receptor>
docking.prm

>  <SCORE>
-12.0496

>  <SCORE.INTER>
-13.2271

>  <SCORE.INTER.CONST>
1

>  <SCORE.INTER.POLAR>
-0.625583

>  <SCORE.INTER.REPUL>
0

>  <SCORE.INTER.ROT>
0

>  <SCORE.INTER.VDW>
-16.5001

>  <SCORE.INTER.norm>
-0.826692

>  <SCORE.INTRA>
0.156075

>  <SCORE.INTRA.DIHEDRAL>
0.428622

>  <SCORE.INTRA.DIHEDRAL.0>
0.00111349

>  <SCORE.INTRA.POLAR>
0

>  <SCORE.INTRA.POLAR.0>
0

>  <SCORE.INTRA.REPUL>
0

>  <SCORE.INTRA.REPUL.0>
0

>  <SCORE.INTRA.VDW>
-0.0582363

>  <SCORE.INTRA.VDW.0>
0.0785026

>  <SCORE.INTRA.norm>
0.00975467

>  <SCORE.RESTR>
0

>  <SCORE.RESTR.CAVITY>
0

>  <SCORE.RESTR.norm>
0

>  <SCORE.SYSTEM>
1.02135

>  <SCORE.SYSTEM.CONST>
0

>  <SCORE.SYSTEM.DIHEDRAL>
0.0362671

>  <SCORE.SYSTEM.REPUL>
0.139765

>  <SCORE.SYSTEM.VDW>
0.304387

>  <SCORE.SYSTEM.norm>
0.0638342

>  <SCORE.heavy>
16

>  <SCORE.norm>
-0.753103

>  <enum_code>
M

>  <enum_smi>
Cc1nn2c(O)c3c([nH+]c2c1C#N)CCC3

>  <sha256>
39e1b0cb6462242f67993cb5678037f9b85a03408faf08abbd395fb60bce143b

>  <std_smi>
Cc1nn2c(O)c3c(nc2c1C#N)CCC3

>  <uuid>
bd9c2487-db50-4966-8736-59f8ff3b9d63

$$$$
bd9c2487-db50-4966-8736-59f8ff3b9d63
  rDOCK(R)          3D
libRbt.so/2013.1/901 2013/11/27
 18 20  0  0  0  0  0  0  0  0999 V2000
   -7.9647   26.9729    4.1606 C   0  0  0  0  0  0
   -6.5603   26.6024    4.4865 C   0  0  0  0  0  0
   -6.0562   25.4186    4.0420 N   0  0  0  0  0  0
   -4.7579   25.3288    4.4793 N   0  0  0  0  0  0
   -3.7855   24.3200    4.3119 C   0  0  0  0  0  0
   -4.1396   23.1985    3.5932 O   0  0  0  0  0  0
   -2.5653   24.4759    4.8591 C   0  0  0  0  0  0
   -2.2127   25.7104    5.6136 C   0  0  0  0  0  0
   -3.0060   26.6910    5.8502 N   0  3  0  0  0  0
   -4.3449   26.5277    5.2713 C   0  0  0  0  0  0
   -5.6077   27.3687    5.2501 C   0  0  0  0  0  0
   -5.7343   28.6300    5.8742 C   0  0  0  0  0  0
   -5.7099   29.6481    6.4241 N   0  0  0  0  0  0
   -0.8059   25.7070    6.0939 C   0  0  0  0  0  0
   -0.2104   24.6210    5.1860 C   0  0  0  0  0  0
   -1.3359   23.6232    4.8657 C   0  0  0  0  0  0
   -3.3905   22.5893    3.4790 H   0  0  0  0  0  0
   -2.7578   27.5328    6.3732 H   0  0  0  0  0  0
  1  2  1  0  0  0
  2  3  2  0  0  0
  3  4  1  0  0  0
  4  5  1  0  0  0
  5  6  1  0  0  0
  5  7  2  0  0  0
  7  8  1  0  0  0
  8  9  2  0  0  0
  9 10  1  0  0  0
 10 11  2  0  0  0
 11 12  1  0  0  0
 12 13  3  0  0  0
  8 14  1  0  0  0
 14 15  1  0  0  0
 15 16  1  0  0  0
 11  2  1  0  0  0
 10  4  1  0  0  0
 16  7  1  0  0  0
  6 17  1  0  0  0
  9 18  1  0  0  0
M  END
>  <CHROM.0>
-59.88758699,68.91933689

>  <CHROM.1>
176.08134831,-4.03647484,25.87916638,4.99973433,2.63654643,-0.28903185,0.48337155

>  <Name>
bd9c2487-db50-4966-8736-59f8ff3b9d63

>  <RI>
2.76411e+07

>  <Rbt.Current_Directory>
/data/work/jku/5V6S/work/40/8dba899c20c42488f2b1a17844994e

>  <Rbt.Executable>
rbdock ($Id: //depot/dev/client3/rdock/2013.1/src/exe/rbdock.cxx#4 $)

>  <Rbt.Library>
libRbt.so (2013.1, Build901 2013/11/27)

>  <Rbt.Parameter_File>
/rDock_2013.1_src/data/scripts/dock.prm

>  <Rbt.Receptor>
docking.prm

>  <SCORE>
-13.1744

>  <SCORE.INTER>
-11.6691

>  <SCORE.INTER.CONST>
1

>  <SCORE.INTER.POLAR>
0

>  <SCORE.INTER.REPUL>
0.00947015

>  <SCORE.INTER.ROT>
0

>  <SCORE.INTER.VDW>
-17.1165

>  <SCORE.INTER.norm>
-0.729322

>  <SCORE.INTRA>
0.00837896

>  <SCORE.INTRA.DIHEDRAL>
0.024595

>  <SCORE.INTRA.DIHEDRAL.0>
0.00111349

>  <SCORE.INTRA.POLAR>
0

>  <SCORE.INTRA.POLAR.0>
0

>  <SCORE.INTRA.REPUL>
0

>  <SCORE.INTRA.REPUL.0>
0

>  <SCORE.INTRA.VDW>
-0.00391856

>  <SCORE.INTRA.VDW.0>
0.0785026

>  <SCORE.INTRA.norm>
0.000523685

>  <SCORE.RESTR>
0

>  <SCORE.RESTR.CAVITY>
0

>  <SCORE.RESTR.norm>
0

>  <SCORE.SYSTEM>
-1.51367

>  <SCORE.SYSTEM.CONST>
0

>  <SCORE.SYSTEM.DIHEDRAL>
0.393134

>  <SCORE.SYSTEM.POLAR>
-0.502934

>  <SCORE.SYSTEM.VDW>
-0.000259587

>  <SCORE.SYSTEM.norm>
-0.0946043

>  <SCORE.heavy>
16

>  <SCORE.norm>
-0.823402

>  <enum_code>
M

>  <enum_smi>
Cc1nn2c(O)c3c([nH+]c2c1C#N)CCC3

>  <sha256>
39e1b0cb6462242f67993cb5678037f9b85a03408faf08abbd395fb60bce143b

>  <std_smi>
Cc1nn2c(O)c3c(nc2c1C#N)CCC3

>  <uuid>
bd9c2487-db50-4966-8736-59f8ff3b9d63

$$$$
bd9c2487-db50-4966-8736-59f8ff3b9d63
  rDOCK(R)          3D
libRbt.so/2013.1/901 2013/11/27
 18 20  0  0  0  0  0  0  0  0999 V2000
   -2.9528   26.4658    4.9527 C   0  0  0  0  0  0
   -2.4083   27.6782    4.2825 C   0  0  0  0  0  0
   -1.8082   27.5626    3.0661 N   0  0  0  0  0  0
   -1.4016   28.8164    2.6819 N   0  0  0  0  0  0
   -0.7290   29.2646    1.5253 C   0  0  0  0  0  0
   -0.3899   28.3262    0.5744 O   0  0  0  0  0  0
   -0.4341   30.5715    1.3925 C   0  0  0  0  0  0
   -0.8331   31.5596    2.4327 C   0  0  0  0  0  0
   -1.4320   31.2819    3.5332 N   0  3  0  0  0  0
   -1.7469   29.8577    3.6976 C   0  0  0  0  0  0
   -2.4317   29.0338    4.7722 C   0  0  0  0  0  0
   -2.9555   29.5674    5.9711 C   0  0  0  0  0  0
   -3.3427   30.1244    6.9087 N   0  0  0  0  0  0
   -0.4579   32.9527    2.0746 C   0  0  0  0  0  0
   -0.2370   32.7956    0.5630 C   0  0  0  0  0  0
    0.2485   31.3572    0.3176 C   0  0  0  0  0  0
   -0.1696   28.7373   -0.2787 H   0  0  0  0  0  0
   -1.6981   31.9653    4.2444 H   0  0  0  0  0  0
  1  2  1  0  0  0
  2  3  2  0  0  0
  3  4  1  0  0  0
  4  5  1  0  0  0
  5  6  1  0  0  0
  5  7  2  0  0  0
  7  8  1  0  0  0
  8  9  2  0  0  0
  9 10  1  0  0  0
 10 11  2  0  0  0
 11 12  1  0  0  0
 12 13  3  0  0  0
  8 14  1  0  0  0
 14 15  1  0  0  0
 15 16  1  0  0  0
 11  2  1  0  0  0
 10  4  1  0  0  0
 16  7  1  0  0  0
  6 17  1  0  0  0
  9 18  1  0  0  0
M  END
>  <CHROM.0>
-59.88758699,68.94644387

>  <CHROM.1>
163.64710108,-1.43658210,29.81325018,2.99682859,-2.79466674,1.09368851,0.26409530

>  <Name>
bd9c2487-db50-4966-8736-59f8ff3b9d63

>  <RI>
2.76411e+07

>  <Rbt.Current_Directory>
/data/work/jku/5V6S/work/40/8dba899c20c42488f2b1a17844994e

>  <Rbt.Executable>
rbdock ($Id: //depot/dev/client3/rdock/2013.1/src/exe/rbdock.cxx#4 $)

>  <Rbt.Library>
libRbt.so (2013.1, Build901 2013/11/27)

>  <Rbt.Parameter_File>
/rDock_2013.1_src/data/scripts/dock.prm

>  <Rbt.Receptor>
docking.prm

>  <SCORE>
-14.5765

>  <SCORE.INTER>
-13.2067

>  <SCORE.INTER.CONST>
1

>  <SCORE.INTER.POLAR>
-0.568857

>  <SCORE.INTER.REPUL>
0

>  <SCORE.INTER.ROT>
0

>  <SCORE.INTER.VDW>
-16.6726

>  <SCORE.INTER.norm>
-0.825419

>  <SCORE.INTRA>
0.142222

>  <SCORE.INTRA.DIHEDRAL>
0.391776

>  <SCORE.INTRA.DIHEDRAL.0>
0.00111349

>  <SCORE.INTRA.POLAR>
0

>  <SCORE.INTRA.POLAR.0>
0

>  <SCORE.INTRA.REPUL>
0

>  <SCORE.INTRA.REPUL.0>
0

>  <SCORE.INTRA.VDW>
-0.0536659

>  <SCORE.INTRA.VDW.0>
0.0785026

>  <SCORE.INTRA.norm>
0.00888888

>  <SCORE.RESTR>
0.00165519

>  <SCORE.RESTR.CAVITY>
0.00165519

>  <SCORE.RESTR.norm>
0.000103449

>  <SCORE.SYSTEM>
-1.51366

>  <SCORE.SYSTEM.CONST>
0

>  <SCORE.SYSTEM.DIHEDRAL>
0.395437

>  <SCORE.SYSTEM.POLAR>
-0.502952

>  <SCORE.SYSTEM.VDW>
-0.00134415

>  <SCORE.SYSTEM.norm>
-0.0946039

>  <SCORE.heavy>
16

>  <SCORE.norm>
-0.91103

>  <enum_code>
M

>  <enum_smi>
Cc1nn2c(O)c3c([nH+]c2c1C#N)CCC3

>  <sha256>
39e1b0cb6462242f67993cb5678037f9b85a03408faf08abbd395fb60bce143b

>  <std_smi>
Cc1nn2c(O)c3c(nc2c1C#N)CCC3

>  <uuid>
bd9c2487-db50-4966-8736-59f8ff3b9d63

$$$$
62d95ac5-5941-463b-995d-a6505d2962c8
  rDOCK(R)          3D
libRbt.so/2013.1/901 2013/11/27
 19 21  0  0  0  0  0  0  0  0999 V2000
   -3.3136   29.9626    6.4997 C   0  0  0  0  0  0
   -2.5591   30.3687    5.3085 C   0  0  0  0  0  0
   -2.1646   31.6956    5.0246 N   0  3  0  0  0  0
   -1.4174   31.6365    3.7043 N   0  0  0  0  0  0
   -0.8588   32.6999    3.0647 C   0  0  0  0  0  0
   -0.9881   33.9059    3.6678 O   0  0  0  0  0  0
   -0.2329   32.4232    1.9137 C   0  0  0  0  0  0
   -0.2171   31.0217    1.3996 C   0  0  0  0  0  0
   -0.7218   29.9901    1.9806 N   0  3  0  0  0  0
   -1.3915   30.2987    3.2524 C   0  0  0  0  0  0
   -2.0930   29.5008    4.2319 C   0  0  0  0  0  0
   -2.2761   28.1070    4.1235 C   0  0  0  0  0  0
   -2.3669   26.9718    3.9317 N   0  0  0  0  0  0
    0.4753   30.9136    0.0864 C   0  0  0  0  0  0
    0.4510   32.3841   -0.3609 C   0  0  0  0  0  0
    0.4929   33.2535    0.9073 C   0  0  0  0  0  0
   -2.3203   32.5592    5.5611 H   0  0  0  0  0  0
   -1.7371   33.8791    4.2953 H   0  0  0  0  0  0
   -0.6914   29.0387    1.6068 H   0  0  0  0  0  0
  1  2  1  0  0  0
  2  3  2  0  0  0
  3  4  1  0  0  0
  4  5  1  0  0  0
  5  6  1  0  0  0
  5  7  2  0  0  0
  7  8  1  0  0  0
  8  9  2  0  0  0
  9 10  1  0  0  0
 10 11  2  0  0  0
 11 12  1  0  0  0
 12 13  3  0  0  0
  8 14  1  0  0  0
 14 15  1  0  0  0
 15 16  1  0  0  0
 11  2  1  0  0  0
 10  4  1  0  0  0
 16  7  1  0  0  0
  3 17  1  0  0  0
  6 18  1  0  0  0
  9 19  1  0  0  0
M  END
>  <CHROM.0>
-59.88758699,69.21397580

>  <CHROM.1>
-20.92844021,-1.20045668,31.00142220,3.05997695,2.84364661,-1.05675786,-2.82902336

>  <Name>
62d95ac5-5941-463b-995d-a6505d2962c8

>  <RI>
2.48231e+07

>  <Rbt.Current_Directory>
/data/work/jku/5V6S/work/40/8dba899c20c42488f2b1a17844994e

>  <Rbt.Executable>
rbdock ($Id: //depot/dev/client3/rdock/2013.1/src/exe/rbdock.cxx#4 $)

>  <Rbt.Library>
libRbt.so (2013.1, Build901 2013/11/27)

>  <Rbt.Parameter_File>
/rDock_2013.1_src/data/scripts/dock.prm

>  <Rbt.Receptor>
docking.prm

>  <SCORE>
-14.8118

>  <SCORE.INTER>
-13.87

>  <SCORE.INTER.CONST>
1

>  <SCORE.INTER.POLAR>
-1.7601

>  <SCORE.INTER.REPUL>
0.239939

>  <SCORE.INTER.ROT>
0

>  <SCORE.INTER.VDW>
-14.4854

>  <SCORE.INTER.norm>
-0.866878

>  <SCORE.INTRA>
0.571459

>  <SCORE.INTRA.DIHEDRAL>
0.593111

>  <SCORE.INTRA.DIHEDRAL.0>
0.000209498

>  <SCORE.INTRA.POLAR>
0

>  <SCORE.INTRA.POLAR.0>
0

>  <SCORE.INTRA.REPUL>
0

>  <SCORE.INTRA.REPUL.0>
0

>  <SCORE.INTRA.VDW>
0.274903

>  <SCORE.INTRA.VDW.0>
-0.0314188

>  <SCORE.INTRA.norm>
0.0357162

>  <SCORE.RESTR>
0

>  <SCORE.RESTR.CAVITY>
0

>  <SCORE.RESTR.norm>
0

>  <SCORE.SYSTEM>
-1.51323

>  <SCORE.SYSTEM.CONST>
0

>  <SCORE.SYSTEM.DIHEDRAL>
0.41852

>  <SCORE.SYSTEM.POLAR>
-0.503098

>  <SCORE.SYSTEM.VDW>
-0.0119584

>  <SCORE.SYSTEM.norm>
-0.094577

>  <SCORE.heavy>
16

>  <SCORE.norm>
-0.925739

>  <enum_code>
M

>  <enum_smi>
Cc1[nH+]n2c(O)c3c([nH+]c2c1C#N)CCC3

>  <sha256>
39e1b0cb6462242f67993cb5678037f9b85a03408faf08abbd395fb60bce143b

>  <std_smi>
Cc1nn2c(O)c3c(nc2c1C#N)CCC3

>  <uuid>
62d95ac5-5941-463b-995d-a6505d2962c8

$$$$
62d95ac5-5941-463b-995d-a6505d2962c8
  rDOCK(R)          3D
libRbt.so/2013.1/901 2013/11/27
 19 21  0  0  0  0  0  0  0  0999 V2000
   -3.3487   29.9705    6.4904 C   0  0  0  0  0  0
   -2.5900   30.3741    5.3009 C   0  0  0  0  0  0
   -2.1838   31.6984    5.0217 N   0  3  0  0  0  0
   -1.4364   31.6373    3.7016 N   0  0  0  0  0  0
   -0.8682   32.6978    3.0658 C   0  0  0  0  0  0
   -0.9873   33.9028    3.6730 O   0  0  0  0  0  0
   -0.2441   32.4195    1.9142 C   0  0  0  0  0  0
   -0.2404   31.0197    1.3955 C   0  0  0  0  0  0
   -0.7543   29.9907    1.9727 N   0  3  0  0  0  0
   -1.4220   30.3008    3.2452 C   0  0  0  0  0  0
   -2.1309   29.5058    4.2216 C   0  0  0  0  0  0
   -2.3262   28.1139    4.1085 C   0  0  0  0  0  0
   -2.4269   26.9802    3.9128 N   0  0  0  0  0  0
    0.4518   30.9100    0.0823 C   0  0  0  0  0  0
    0.4406   32.3821   -0.3601 C   0  0  0  0  0  0
    0.4894   33.2469    0.9110 C   0  0  0  0  0  0
   -2.3322   32.5616    5.5611 H   0  0  0  0  0  0
   -1.7270   33.8758    4.3114 H   0  0  0  0  0  0
   -0.7321   29.0403    1.5958 H   0  0  0  0  0  0
  1  2  1  0  0  0
  2  3  2  0  0  0
  3  4  1  0  0  0
  4  5  1  0  0  0
  5  6  1  0  0  0
  5  7  2  0  0  0
  7  8  1  0  0  0
  8  9  2  0  0  0
  9 10  1  0  0  0
 10 11  2  0  0  0
 11 12  1  0  0  0
 12 13  3  0  0  0
  8 14  1  0  0  0
 14 15  1  0  0  0
 15 16  1  0  0  0
 11  2  1  0  0  0
 10  4  1  0  0  0
 16  7  1  0  0  0
  3 17  1  0  0  0
  6 18  1  0  0  0
  9 19  1  0  0  0
M  END
>  <CHROM.0>
-59.88758699,68.60687206

>  <CHROM.1>
-19.94768186,-1.22467446,31.00242362,3.05530865,2.86033591,-1.05352227,-2.81110732

>  <Name>
62d95ac5-5941-463b-995d-a6505d2962c8

>  <RI>
2.48231e+07

>  <Rbt.Current_Directory>
/data/work/jku/5V6S/work/40/8dba899c20c42488f2b1a17844994e

>  <Rbt.Executable>
rbdock ($Id: //depot/dev/client3/rdock/2013.1/src/exe/rbdock.cxx#4 $)

>  <Rbt.Library>
libRbt.so (2013.1, Build901 2013/11/27)

>  <Rbt.Parameter_File>
/rDock_2013.1_src/data/scripts/dock.prm

>  <Rbt.Receptor>
docking.prm

>  <SCORE>
-14.7831

>  <SCORE.INTER>
-13.841

>  <SCORE.INTER.CONST>
1

>  <SCORE.INTER.POLAR>
-1.76432

>  <SCORE.INTER.REPUL>
0.241715

>  <SCORE.INTER.ROT>
0

>  <SCORE.INTER.VDW>
-14.4509

>  <SCORE.INTER.norm>
-0.865061

>  <SCORE.INTRA>
0.571147

>  <SCORE.INTRA.DIHEDRAL>
0.540104

>  <SCORE.INTRA.DIHEDRAL.0>
0.000209498

>  <SCORE.INTRA.POLAR>
0

>  <SCORE.INTRA.POLAR.0>
0

>  <SCORE.INTRA.REPUL>
0

>  <SCORE.INTRA.REPUL.0>
0

>  <SCORE.INTRA.VDW>
0.301096

>  <SCORE.INTRA.VDW.0>
-0.0314188

>  <SCORE.INTRA.norm>
0.0356967

>  <SCORE.RESTR>
0

>  <SCORE.RESTR.CAVITY>
0

>  <SCORE.RESTR.norm>
0

>  <SCORE.SYSTEM>
-1.51323

>  <SCORE.SYSTEM.CONST>
0

>  <SCORE.SYSTEM.DIHEDRAL>
0.367048

>  <SCORE.SYSTEM.POLAR>
-0.502683

>  <SCORE.SYSTEM.VDW>
0.0123643

>  <SCORE.SYSTEM.norm>
-0.0945771

>  <SCORE.heavy>
16

>  <SCORE.norm>
-0.923942

>  <enum_code>
M

>  <enum_smi>
Cc1[nH+]n2c(O)c3c([nH+]c2c1C#N)CCC3

>  <sha256>
39e1b0cb6462242f67993cb5678037f9b85a03408faf08abbd395fb60bce143b

>  <std_smi>
Cc1nn2c(O)c3c(nc2c1C#N)CCC3

>  <uuid>
62d95ac5-5941-463b-995d-a6505d2962c8

$$$$
62d95ac5-5941-463b-995d-a6505d2962c8
  rDOCK(R)          3D
libRbt.so/2013.1/901 2013/11/27
 19 21  0  0  0  0  0  0  0  0999 V2000
   -3.3649   29.9595    6.4818 C   0  0  0  0  0  0
   -2.6026   30.3651    5.2953 C   0  0  0  0  0  0
   -2.1956   31.6899    5.0195 N   0  3  0  0  0  0
   -1.4442   31.6309    3.7017 N   0  0  0  0  0  0
   -0.8741   32.6925    3.0694 C   0  0  0  0  0  0
   -0.9951   33.8966    3.6782 O   0  0  0  0  0  0
   -0.2464   32.4162    1.9192 C   0  0  0  0  0  0
   -0.2410   31.0172    1.3982 C   0  0  0  0  0  0
   -0.7567   29.9872    1.9721 N   0  3  0  0  0  0
   -1.4282   30.2952    3.2430 C   0  0  0  0  0  0
   -2.1402   29.4985    4.2160 C   0  0  0  0  0  0
   -2.3350   28.1069    4.1000 C   0  0  0  0  0  0
   -2.4350   26.9735    3.9021 N   0  0  0  0  0  0
    0.4552   30.9097    0.0869 C   0  0  0  0  0  0
    0.4454   32.3825   -0.3531 C   0  0  0  0  0  0
    0.4902   33.2452    0.9196 C   0  0  0  0  0  0
   -2.3457   32.5521    5.5598 H   0  0  0  0  0  0
   -1.7397   33.8698    4.3108 H   0  0  0  0  0  0
   -0.7332   29.0374    1.5937 H   0  0  0  0  0  0
  1  2  1  0  0  0
  2  3  2  0  0  0
  3  4  1  0  0  0
  4  5  1  0  0  0
  5  6  1  0  0  0
  5  7  2  0  0  0
  7  8  1  0  0  0
  8  9  2  0  0  0
  9 10  1  0  0  0
 10 11  2  0  0  0
 11 12  1  0  0  0
 12 13  3  0  0  0
  8 14  1  0  0  0
 14 15  1  0  0  0
 15 16  1  0  0  0
 11  2  1  0  0  0
 10  4  1  0  0  0
 16  7  1  0  0  0
  3 17  1  0  0  0
  6 18  1  0  0  0
  9 19  1  0  0  0
M  END
>  <CHROM.0>
-59.88758699,69.19309659

>  <CHROM.1>
-20.23687765,-1.23039789,30.99715357,3.05492721,2.85816451,-1.05061771,-2.81135573

>  <Name>
62d95ac5-5941-463b-995d-a6505d2962c8

>  <RI>
2.48231e+07

>  <Rbt.Current_Directory>
/data/work/jku/5V6S/work/40/8dba899c20c42488f2b1a17844994e

>  <Rbt.Executable>
rbdock ($Id: //depot/dev/client3/rdock/2013.1/src/exe/rbdock.cxx#4 $)

>  <Rbt.Library>
libRbt.so (2013.1, Build901 2013/11/27)

>  <Rbt.Parameter_File>
/rDock_2013.1_src/data/scripts/dock.prm

>  <Rbt.Receptor>
docking.prm

>  <SCORE>
-14.784

>  <SCORE.INTER>
-13.8418

>  <SCORE.INTER.CONST>
1

>  <SCORE.INTER.POLAR>
-1.76335

>  <SCORE.INTER.REPUL>
0.246745

>  <SCORE.INTER.ROT>
0

>  <SCORE.INTER.VDW>
-14.4801

>  <SCORE.INTER.norm>
-0.865114

>  <SCORE.INTRA>
0.571096

>  <SCORE.INTRA.DIHEDRAL>
0.55551

>  <SCORE.INTRA.DIHEDRAL.0>
0.000209498

>  <SCORE.INTRA.POLAR>
0

>  <SCORE.INTRA.POLAR.0>
0

>  <SCORE.INTRA.REPUL>
0

>  <SCORE.INTRA.REPUL.0>
0

>  <SCORE.INTRA.VDW>
0.293341

>  <SCORE.INTRA.VDW.0>
-0.0314188

>  <SCORE.INTRA.norm>
0.0356935

>  <SCORE.RESTR>
0

>  <SCORE.RESTR.CAVITY>
0

>  <SCORE.RESTR.norm>
0

>  <SCORE.SYSTEM>
-1.51329

>  <SCORE.SYSTEM.CONST>
0

>  <SCORE.SYSTEM.DIHEDRAL>
0.416696

>  <SCORE.SYSTEM.POLAR>
-0.503089

>  <SCORE.SYSTEM.VDW>
-0.0111359

>  <SCORE.SYSTEM.norm>
-0.0945806

>  <SCORE.heavy>
16

>  <SCORE.norm>
-0.924001

>  <enum_code>
M

>  <enum_smi>
Cc1[nH+]n2c(O)c3c([nH+]c2c1C#N)CCC3

>  <sha256>
39e1b0cb6462242f67993cb5678037f9b85a03408faf08abbd395fb60bce143b

>  <std_smi>
Cc1nn2c(O)c3c(nc2c1C#N)CCC3

>  <uuid>
62d95ac5-5941-463b-995d-a6505d2962c8

$$$$
62d95ac5-5941-463b-995d-a6505d2962c8
  rDOCK(R)          3D
libRbt.so/2013.1/901 2013/11/27
 19 21  0  0  0  0  0  0  0  0999 V2000
   -3.3474   29.9499    6.4875 C   0  0  0  0  0  0
   -2.5886   30.3576    5.2995 C   0  0  0  0  0  0
   -2.1860   31.6836    5.0228 N   0  3  0  0  0  0
   -1.4370   31.6267    3.7035 N   0  0  0  0  0  0
   -0.8713   32.6900    3.0700 C   0  0  0  0  0  0
   -0.9946   33.8937    3.6790 O   0  0  0  0  0  0
   -0.2450   32.4154    1.9187 C   0  0  0  0  0  0
   -0.2365   31.0164    1.3977 C   0  0  0  0  0  0
   -0.7481   29.9849    1.9727 N   0  3  0  0  0  0
   -1.4181   30.2910    3.2449 C   0  0  0  0  0  0
   -2.1257   29.4924    4.2193 C   0  0  0  0  0  0
   -2.3167   28.1001    4.1038 C   0  0  0  0  0  0
   -2.4138   26.9664    3.9062 N   0  0  0  0  0  0
    0.4574   30.9108    0.0851 C   0  0  0  0  0  0
    0.4423   32.3836   -0.3550 C   0  0  0  0  0  0
    0.4872   33.2465    0.9176 C   0  0  0  0  0  0
   -2.3376   32.5454    5.5634 H   0  0  0  0  0  0
   -1.7427   33.8671    4.3075 H   0  0  0  0  0  0
   -0.7226   29.0352    1.5943 H   0  0  0  0  0  0
  1  2  1  0  0  0
  2  3  2  0  0  0
  3  4  1  0  0  0
  4  5  1  0  0  0
  5  6  1  0  0  0
  5  7  2  0  0  0
  7  8  1  0  0  0
  8  9  2  0  0  0
  9 10  1  0  0  0
 10 11  2  0  0  0
 11 12  1  0  0  0
 12 13  3  0  0  0
  8 14  1  0  0  0
 14 15  1  0  0  0
 15 16  1  0  0  0
 11  2  1  0  0  0
 10  4  1  0  0  0
 16  7  1  0  0  0
  3 17  1  0  0  0
  6 18  1  0  0  0
  9 19  1  0  0  0
M  END
>  <CHROM.0>
-59.88758699,68.91310232

>  <CHROM.1>
-20.72108265,-1.22267620,30.99355922,3.05635849,2.85375531,-1.05340883,-2.81526196

>  <Name>
62d95ac5-5941-463b-995d-a6505d2962c8

>  <RI>
2.48231e+07

>  <Rbt.Current_Directory>
/data/work/jku/5V6S/work/40/8dba899c20c42488f2b1a17844994e

>  <Rbt.Executable>
rbdock ($Id: //depot/dev/client3/rdock/2013.1/src/exe/rbdock.cxx#4 $)

>  <Rbt.Library>
libRbt.so (2013.1, Build901 2013/11/27)

>  <Rbt.Parameter_File>
/rDock_2013.1_src/data/scripts/dock.prm

>  <Rbt.Receptor>
docking.prm

>  <SCORE>
-14.7806

>  <SCORE.INTER>
-13.8382

>  <SCORE.INTER.CONST>
1

>  <SCORE.INTER.POLAR>
-1.75828

>  <SCORE.INTER.REPUL>
0.245815

>  <SCORE.INTER.ROT>
0

>  <SCORE.INTER.VDW>
-14.4891

>  <SCORE.INTER.norm>
-0.864888

>  <SCORE.INTRA>
0.571277

>  <SCORE.INTRA.DIHEDRAL>
0.581725

>  <SCORE.INTRA.DIHEDRAL.0>
0.000209498

>  <SCORE.INTRA.POLAR>
0

>  <SCORE.INTRA.POLAR.0>
0

>  <SCORE.INTRA.REPUL>
0

>  <SCORE.INTRA.REPUL.0>
0

>  <SCORE.INTRA.VDW>
0.280414

>  <SCORE.INTRA.VDW.0>
-0.0314188

>  <SCORE.INTRA.norm>
0.0357048

>  <SCORE.RESTR>
0

>  <SCORE.RESTR.CAVITY>
0

>  <SCORE.RESTR.norm>
0

>  <SCORE.SYSTEM>
-1.51367

>  <SCORE.SYSTEM.CONST>
0

>  <SCORE.SYSTEM.DIHEDRAL>
0.392605

>  <SCORE.SYSTEM.POLAR>
-0.50293

>  <SCORE.SYSTEM.VDW>
-9.89954e-06

>  <SCORE.SYSTEM.norm>
-0.0946043

>  <SCORE.heavy>
16

>  <SCORE.norm>
-0.923787

>  <enum_code>
M

>  <enum_smi>
Cc1[nH+]n2c(O)c3c([nH+]c2c1C#N)CCC3

>  <sha256>
39e1b0cb6462242f67993cb5678037f9b85a03408faf08abbd395fb60bce143b

>  <std_smi>
Cc1nn2c(O)c3c(nc2c1C#N)CCC3

>  <uuid>
62d95ac5-5941-463b-995d-a6505d2962c8

$$$$
62d95ac5-5941-463b-995d-a6505d2962c8
  rDOCK(R)          3D
libRbt.so/2013.1/901 2013/11/27
 19 21  0  0  0  0  0  0  0  0999 V2000
   -1.6396   33.7402    2.6288 C   0  0  0  0  0  0
   -1.6466   32.3603    3.1280 C   0  0  0  0  0  0
   -2.1702   31.9643    4.3793 N   0  3  0  0  0  0
   -1.9618   30.4629    4.4639 N   0  0  0  0  0  0
   -2.3287   29.6722    5.5088 C   0  0  0  0  0  0
   -2.9291   30.2899    6.5543 O   0  0  0  0  0  0
   -2.0620   28.3670    5.3724 C   0  0  0  0  0  0
   -1.3694   27.8790    4.1433 C   0  0  0  0  0  0
   -1.0191   28.5920    3.1308 N   0  3  0  0  0  0
   -1.3313   30.0208    3.2799 C   0  0  0  0  0  0
   -1.1287   31.1808    2.4424 C   0  0  0  0  0  0
   -0.5206   31.1347    1.1710 C   0  0  0  0  0  0
   -0.0101   30.9797    0.1468 N   0  0  0  0  0  0
   -1.1090   26.4142    4.1904 C   0  0  0  0  0  0
   -1.2605   26.1546    5.6979 C   0  0  0  0  0  0
   -2.2771   27.1726    6.2421 C   0  0  0  0  0  0
   -2.6123   32.5278    5.1176 H   0  0  0  0  0  0
   -3.4785   29.6459    7.0430 H   0  0  0  0  0  0
   -0.5497   28.2291    2.2979 H   0  0  0  0  0  0
  1  2  1  0  0  0
  2  3  2  0  0  0
  3  4  1  0  0  0
  4  5  1  0  0  0
  5  6  1  0  0  0
  5  7  2  0  0  0
  7  8  1  0  0  0
  8  9  2  0  0  0
  9 10  1  0  0  0
 10 11  2  0  0  0
 11 12  1  0  0  0
 12 13  3  0  0  0
  8 14  1  0  0  0
 14 15  1  0  0  0
 15 16  1  0  0  0
 11  2  1  0  0  0
 10  4  1  0  0  0
 16  7  1  0  0  0
  3 17  1  0  0  0
  6 18  1  0  0  0
  9 19  1  0  0  0
M  END
>  <CHROM.0>
-59.88758699,69.61337374

>  <CHROM.1>
155.78111707,-1.57432700,29.78155992,3.95767439,1.32146198,1.09373622,-0.39580402

>  <Name>
62d95ac5-5941-463b-995d-a6505d2962c8

>  <RI>
2.48231e+07

>  <Rbt.Current_Directory>
/data/work/jku/5V6S/work/40/8dba899c20c42488f2b1a17844994e

>  <Rbt.Executable>
rbdock ($Id: //depot/dev/client3/rdock/2013.1/src/exe/rbdock.cxx#4 $)

>  <Rbt.Library>
libRbt.so (2013.1, Build901 2013/11/27)

>  <Rbt.Parameter_File>
/rDock_2013.1_src/data/scripts/dock.prm

>  <Rbt.Receptor>
docking.prm

>  <SCORE>
-15.1808

>  <SCORE.INTER>
-13.9871

>  <SCORE.INTER.CONST>
1

>  <SCORE.INTER.POLAR>
-1.06116

>  <SCORE.INTER.REPUL>
0.0137768

>  <SCORE.INTER.ROT>
0

>  <SCORE.INTER.VDW>
-15.8481

>  <SCORE.INTER.norm>
-0.874197

>  <SCORE.INTRA>
0.31769

>  <SCORE.INTRA.DIHEDRAL>
0.786044

>  <SCORE.INTRA.DIHEDRAL.0>
0.000209498

>  <SCORE.INTRA.POLAR>
0

>  <SCORE.INTRA.POLAR.0>
0

>  <SCORE.INTRA.REPUL>
0

>  <SCORE.INTRA.REPUL.0>
0

>  <SCORE.INTRA.VDW>
-0.075332

>  <SCORE.INTRA.VDW.0>
-0.0314188

>  <SCORE.INTRA.norm>
0.0198556

>  <SCORE.RESTR>
0

>  <SCORE.RESTR.CAVITY>
0

>  <SCORE.RESTR.norm>
0

>  <SCORE.SYSTEM>
-1.51134

>  <SCORE.SYSTEM.CONST>
0

>  <SCORE.SYSTEM.DIHEDRAL>
0.454142

>  <SCORE.SYSTEM.POLAR>
-0.503209

>  <SCORE.SYSTEM.VDW>
-0.0275033

>  <SCORE.SYSTEM.norm>
-0.094459

>  <SCORE.heavy>
16

>  <SCORE.norm>
-0.9488

>  <enum_code>
M

>  <enum_smi>
Cc1[nH+]n2c(O)c3c([nH+]c2c1C#N)CCC3

>  <sha256>
39e1b0cb6462242f67993cb5678037f9b85a03408faf08abbd395fb60bce143b

>  <std_smi>
Cc1nn2c(O)c3c(nc2c1C#N)CCC3

>  <uuid>
62d95ac5-5941-463b-995d-a6505d2962c8

$$$$
a4c1a0f5-d8ad-4cc8-a694-54faea3fb436
  rDOCK(R)          3D
libRbt.so/2013.1/901 2013/11/27
 19 20  0  0  0  0  0  0  0  0999 V2000
   -3.5208   27.5926    5.0275 C   0  0  0  0  0  0
   -3.9453   26.5421    5.8988 O   0  0  0  0  0  0
   -3.6926   25.3140    5.3327 C   0  0  0  0  0  0
   -2.4037   24.7639    5.4316 C   0  0  0  0  0  0
   -1.1314   25.5849    6.2645 Cl  0  0  0  0  0  0
   -2.1175   23.5289    4.8528 C   0  0  0  0  0  0
   -3.1148   22.8548    4.1569 C   0  0  0  0  0  0
   -2.7677   21.3316    3.4349 Cl  0  0  0  0  0  0
   -4.3921   23.4034    4.0262 C   0  0  0  0  0  0
   -4.6990   24.6453    4.6054 C   0  0  0  0  0  0
   -6.0350   25.2139    4.4173 C   0  0  0  0  0  0
   -6.5163   26.5013    4.5687 C   0  0  0  0  0  0
   -7.8843   26.4345    4.2513 C   0  0  0  0  0  0
   -8.7133   27.4830    4.2754 N   0  0  0  0  0  0
   -8.2631   25.2027    3.9357 N   0  0  0  0  0  0
   -7.1334   24.4859    4.0320 N   0  0  0  0  0  0
   -8.6577   28.1108    3.4809 H   0  0  0  0  0  0
   -9.6487   27.3845    4.6493 H   0  0  0  0  0  0
   -7.1836   23.4931    3.8340 H   0  0  0  0  0  0
  1  2  1  0  0  0
  2  3  1  0  0  0
  3  4  2  0  0  0
  4  5  1  0  0  0
  4  6  1  0  0  0
  6  7  2  0  0  0
  7  8  1  0  0  0
  7  9  1  0  0  0
  9 10  2  0  0  0
 10 11  1  0  0  0
 11 12  2  0  0  0
 12 13  1  0  0  0
 13 14  1  0  0  0
 13 15  2  0  0  0
 15 16  1  0  0  0
 10  3  1  0  0  0
 16 11  1  0  0  0
 14 17  1  0  0  0
 14 18  1  0  0  0
 16 19  1  0  0  0
M  END
>  <CHROM.0>
-59.88758699,-178.28798862

>  <CHROM.1>
82.02870121,16.94629157,78.22636367,-4.34520780,24.84148719,4.69227813,-2.75575668
0.28002516,-2.73574586

>  <Name>
a4c1a0f5-d8ad-4cc8-a694-54faea3fb436

>  <RI>
3.72012e+07

>  <Rbt.Current_Directory>
/data/work/jku/5V6S/work/40/8dba899c20c42488f2b1a17844994e

>  <Rbt.Executable>
rbdock ($Id: //depot/dev/client3/rdock/2013.1/src/exe/rbdock.cxx#4 $)

>  <Rbt.Library>
libRbt.so (2013.1, Build901 2013/11/27)

>  <Rbt.Parameter_File>
/rDock_2013.1_src/data/scripts/dock.prm

>  <Rbt.Receptor>
docking.prm

>  <SCORE>
-12.4522

>  <SCORE.INTER>
-10.8504

>  <SCORE.INTER.CONST>
1

>  <SCORE.INTER.POLAR>
-0.391922

>  <SCORE.INTER.REPUL>
0.0648721

>  <SCORE.INTER.ROT>
3

>  <SCORE.INTER.VDW>
-18.2422

>  <SCORE.INTER.norm>
-0.678147

>  <SCORE.INTRA>
-1.45797

>  <SCORE.INTRA.DIHEDRAL>
-4.54711

>  <SCORE.INTRA.DIHEDRAL.0>
10.9533

>  <SCORE.INTRA.POLAR>
0

>  <SCORE.INTRA.POLAR.0>
0

>  <SCORE.INTRA.REPUL>
0

>  <SCORE.INTRA.REPUL.0>
0

>  <SCORE.INTRA.VDW>
0.815584

>  <SCORE.INTRA.VDW.0>
-1.22299

>  <SCORE.INTRA.norm>
-0.0911232

>  <SCORE.RESTR>
0.120379

>  <SCORE.RESTR.CAVITY>
0.120379

>  <SCORE.RESTR.norm>
0.00752368

>  <SCORE.SYSTEM>
-0.26424

>  <SCORE.SYSTEM.CONST>
0

>  <SCORE.SYSTEM.DIHEDRAL>
0.0220854

>  <SCORE.SYSTEM.VDW>
-0.275283

>  <SCORE.SYSTEM.norm>
-0.016515

>  <SCORE.heavy>
16

>  <SCORE.norm>
-0.778262

>  <enum_code>
B

>  <enum_smi>
COc1c(Cl)cc(Cl)cc1-c1cc(N)n[nH]1

>  <sha256>
0220565b592d6bbf24b09234e18ce1e3bcd7b2483639a8f09b309f48b2132b18

>  <std_smi>
COc1c(Cl)cc(Cl)cc1-c1cc(N)n[nH]1

>  <uuid>
a4c1a0f5-d8ad-4cc8-a694-54faea3fb436

$$$$
a4c1a0f5-d8ad-4cc8-a694-54faea3fb436
  rDOCK(R)          3D
libRbt.so/2013.1/901 2013/11/27
 19 20  0  0  0  0  0  0  0  0999 V2000
   -2.1813   33.7087    2.2532 C   0  0  0  0  0  0
   -2.3483   32.7958    1.1661 O   0  0  0  0  0  0
   -2.0388   31.5145    1.5602 C   0  0  0  0  0  0
   -2.9383   30.8113    2.3787 C   0  0  0  0  0  0
   -4.4345   31.5105    2.8876 Cl  0  0  0  0  0  0
   -2.6409   29.5183    2.8051 C   0  0  0  0  0  0
   -1.4346   28.9374    2.4304 C   0  0  0  0  0  0
   -1.0579   27.3429    2.9573 Cl  0  0  0  0  0  0
   -0.5188   29.6359    1.6411 C   0  0  0  0  0  0
   -0.8030   30.9384    1.2000 C   0  0  0  0  0  0
    0.1938   31.6608    0.4074 C   0  0  0  0  0  0
    0.2545   32.9754   -0.0170 C   0  0  0  0  0  0
    1.4495   33.0825   -0.7499 C   0  0  0  0  0  0
    1.8763   34.2083   -1.3310 N   0  0  0  0  0  0
    2.1024   31.9290   -0.8100 N   0  0  0  0  0  0
    1.3349   31.0895   -0.0989 N   0  0  0  0  0  0
    2.6930   34.6409   -0.9134 H   0  0  0  0  0  0
    1.8334   34.3104   -2.3370 H   0  0  0  0  0  0
    1.6419   30.1278   -0.0088 H   0  0  0  0  0  0
  1  2  1  0  0  0
  2  3  1  0  0  0
  3  4  2  0  0  0
  4  5  1  0  0  0
  4  6  1  0  0  0
  6  7  2  0  0  0
  7  8  1  0  0  0
  7  9  1  0  0  0
  9 10  2  0  0  0
 10 11  1  0  0  0
 11 12  2  0  0  0
 12 13  1  0  0  0
 13 14  1  0  0  0
 13 15  2  0  0  0
 15 16  1  0  0  0
 10  3  1  0  0  0
 16 11  1  0  0  0
 14 17  1  0  0  0
 14 18  1  0  0  0
 16 19  1  0  0  0
M  END
>  <CHROM.0>
-59.88758699,68.67538889

>  <CHROM.1>
74.36859770,7.52910242,110.17022770,-1.12039517,31.09008499,1.43179740,0.77593947
0.48280037,-0.34925514

>  <Name>
a4c1a0f5-d8ad-4cc8-a694-54faea3fb436

>  <RI>
3.72012e+07

>  <Rbt.Current_Directory>
/data/work/jku/5V6S/work/40/8dba899c20c42488f2b1a17844994e

>  <Rbt.Executable>
rbdock ($Id: //depot/dev/client3/rdock/2013.1/src/exe/rbdock.cxx#4 $)

>  <Rbt.Library>
libRbt.so (2013.1, Build901 2013/11/27)

>  <Rbt.Parameter_File>
/rDock_2013.1_src/data/scripts/dock.prm

>  <Rbt.Receptor>
docking.prm

>  <SCORE>
-12.5698

>  <SCORE.INTER>
-9.32695

>  <SCORE.INTER.CONST>
1

>  <SCORE.INTER.POLAR>
-0.690588

>  <SCORE.INTER.REPUL>
0

>  <SCORE.INTER.ROT>
3

>  <SCORE.INTER.VDW>
-15.379

>  <SCORE.INTER.norm>
-0.582935

>  <SCORE.INTRA>
-1.72939

>  <SCORE.INTRA.DIHEDRAL>
-5.68741

>  <SCORE.INTRA.DIHEDRAL.0>
10.9533

>  <SCORE.INTRA.POLAR>
0

>  <SCORE.INTRA.POLAR.0>
0

>  <SCORE.INTRA.REPUL>
0

>  <SCORE.INTRA.REPUL.0>
0

>  <SCORE.INTRA.VDW>
1.11431

>  <SCORE.INTRA.VDW.0>
-1.22299

>  <SCORE.INTRA.norm>
-0.108087

>  <SCORE.RESTR>
0

>  <SCORE.RESTR.CAVITY>
0

>  <SCORE.RESTR.norm>
0

>  <SCORE.SYSTEM>
-1.51341

>  <SCORE.SYSTEM.CONST>
0

>  <SCORE.SYSTEM.DIHEDRAL>
0.372694

>  <SCORE.SYSTEM.POLAR>
-0.502745

>  <SCORE.SYSTEM.VDW>
0.00957686

>  <SCORE.SYSTEM.norm>
-0.094588

>  <SCORE.heavy>
16

>  <SCORE.norm>
-0.78561

>  <enum_code>
B

>  <enum_smi>
COc1c(Cl)cc(Cl)cc1-c1cc(N)n[nH]1

>  <sha256>
0220565b592d6bbf24b09234e18ce1e3bcd7b2483639a8f09b309f48b2132b18

>  <std_smi>
COc1c(Cl)cc(Cl)cc1-c1cc(N)n[nH]1

>  <uuid>
a4c1a0f5-d8ad-4cc8-a694-54faea3fb436

$$$$
a4c1a0f5-d8ad-4cc8-a694-54faea3fb436
  rDOCK(R)          3D
libRbt.so/2013.1/901 2013/11/27
 19 20  0  0  0  0  0  0  0  0999 V2000
   -0.7801   28.2935    0.8639 C   0  0  0  0  0  0
   -1.7776   29.3168    0.8924 O   0  0  0  0  0  0
   -1.9177   29.8186    2.1657 C   0  0  0  0  0  0
   -2.6809   29.1055    3.1051 C   0  0  0  0  0  0
   -3.4333   27.6020    2.7052 Cl  0  0  0  0  0  0
   -2.8518   29.6003    4.3967 C   0  0  0  0  0  0
   -2.2772   30.8185    4.7416 C   0  0  0  0  0  0
   -2.4880   31.4387    6.3330 Cl  0  0  0  0  0  0
   -1.5403   31.5515    3.8092 C   0  0  0  0  0  0
   -1.3555   31.0670    2.5042 C   0  0  0  0  0  0
   -0.6123   31.8767    1.5369 C   0  0  0  0  0  0
   -0.2991   31.6635    0.2070 C   0  0  0  0  0  0
    0.4392   32.7908   -0.1940 C   0  0  0  0  0  0
    0.9296   32.9688   -1.4249 N   0  0  0  0  0  0
    0.6054   33.6564    0.7977 N   0  0  0  0  0  0
   -0.0436   33.0920    1.8272 N   0  0  0  0  0  0
    1.2913   32.1393   -1.8826 H   0  0  0  0  0  0
    0.4882   33.6220   -2.0597 H   0  0  0  0  0  0
   -0.0481   33.5855    2.7125 H   0  0  0  0  0  0
  1  2  1  0  0  0
  2  3  1  0  0  0
  3  4  2  0  0  0
  4  5  1  0  0  0
  4  6  1  0  0  0
  6  7  2  0  0  0
  7  8  1  0  0  0
  7  9  1  0  0  0
  9 10  2  0  0  0
 10 11  1  0  0  0
 11 12  2  0  0  0
 12 13  1  0  0  0
 13 14  1  0  0  0
 13 15  2  0  0  0
 15 16  1  0  0  0
 10  3  1  0  0  0
 16 11  1  0  0  0
 14 17  1  0  0  0
 14 18  1  0  0  0
 16 19  1  0  0  0
M  END
>  <CHROM.0>
-59.88758699,68.95418941

>  <CHROM.1>
-79.95631154,-0.17093506,-38.05954732,-1.50898946,30.68719437,2.47672371
0.26321946,-1.01236682,-2.23007125

>  <Name>
a4c1a0f5-d8ad-4cc8-a694-54faea3fb436

>  <RI>
3.72012e+07

>  <Rbt.Current_Directory>
/data/work/jku/5V6S/work/40/8dba899c20c42488f2b1a17844994e

>  <Rbt.Executable>
rbdock ($Id: //depot/dev/client3/rdock/2013.1/src/exe/rbdock.cxx#4 $)

>  <Rbt.Library>
libRbt.so (2013.1, Build901 2013/11/27)

>  <Rbt.Parameter_File>
/rDock_2013.1_src/data/scripts/dock.prm

>  <Rbt.Receptor>
docking.prm

>  <SCORE>
-17.0784

>  <SCORE.INTER>
-13.6696

>  <SCORE.INTER.CONST>
1

>  <SCORE.INTER.POLAR>
-1.11907

>  <SCORE.INTER.REPUL>
0

>  <SCORE.INTER.ROT>
3

>  <SCORE.INTER.VDW>
-18.2648

>  <SCORE.INTER.norm>
-0.85435

>  <SCORE.INTRA>
-2.12819

>  <SCORE.INTRA.DIHEDRAL>
-5.87326

>  <SCORE.INTRA.DIHEDRAL.0>
10.9533

>  <SCORE.INTRA.POLAR>
0

>  <SCORE.INTRA.POLAR.0>
0

>  <SCORE.INTRA.REPUL>
0

>  <SCORE.INTRA.REPUL.0>
0

>  <SCORE.INTRA.VDW>
0.808444

>  <SCORE.INTRA.VDW.0>
-1.22299

>  <SCORE.INTRA.norm>
-0.133012

>  <SCORE.RESTR>
0.233035

>  <SCORE.RESTR.CAVITY>
0.233035

>  <SCORE.RESTR.norm>
0.0145647

>  <SCORE.SYSTEM>
-1.51366

>  <SCORE.SYSTEM.CONST>
0

>  <SCORE.SYSTEM.DIHEDRAL>
0.396097

>  <SCORE.SYSTEM.POLAR>
-0.502957

>  <SCORE.SYSTEM.VDW>
-0.00165375

>  <SCORE.SYSTEM.norm>
-0.0946037

>  <SCORE.heavy>
16

>  <SCORE.norm>
-1.0674

>  <enum_code>
B

>  <enum_smi>
COc1c(Cl)cc(Cl)cc1-c1cc(N)n[nH]1

>  <sha256>
0220565b592d6bbf24b09234e18ce1e3bcd7b2483639a8f09b309f48b2132b18

>  <std_smi>
COc1c(Cl)cc(Cl)cc1-c1cc(N)n[nH]1

>  <uuid>
a4c1a0f5-d8ad-4cc8-a694-54faea3fb436

$$$$
a4c1a0f5-d8ad-4cc8-a694-54faea3fb436
  rDOCK(R)          3D
libRbt.so/2013.1/901 2013/11/27
 19 20  0  0  0  0  0  0  0  0999 V2000
   -1.6565   26.0549    5.7966 C   0  0  0  0  0  0
   -2.1126   26.2219    4.4523 O   0  0  0  0  0  0
   -3.4742   26.4169    4.4255 C   0  0  0  0  0  0
   -4.3288   25.3031    4.4758 C   0  0  0  0  0  0
   -3.7109   23.6932    4.5896 Cl  0  0  0  0  0  0
   -5.7115   25.4725    4.4336 C   0  0  0  0  0  0
   -6.2381   26.7542    4.3197 C   0  0  0  0  0  0
   -7.9443   26.9712    4.2618 Cl  0  0  0  0  0  0
   -5.3994   27.8678    4.2397 C   0  0  0  0  0  0
   -4.0041   27.7161    4.2835 C   0  0  0  0  0  0
   -3.1497   28.8983    4.1569 C   0  0  0  0  0  0
   -3.4420   30.2498    4.1688 C   0  0  0  0  0  0
   -2.2100   30.9056    3.9986 C   0  0  0  0  0  0
   -2.0654   32.2340    3.9570 N   0  0  0  0  0  0
   -1.2037   30.0505    3.8706 N   0  0  0  0  0  0
   -1.7893   28.8485    3.9789 N   0  0  0  0  0  0
   -2.2706   32.7297    4.8176 H   0  0  0  0  0  0
   -1.3140   32.6482    3.4201 H   0  0  0  0  0  0
   -1.2010   28.0263    3.9071 H   0  0  0  0  0  0
  1  2  1  0  0  0
  2  3  1  0  0  0
  3  4  2  0  0  0
  4  5  1  0  0  0
  4  6  1  0  0  0
  6  7  2  0  0  0
  7  8  1  0  0  0
  7  9  1  0  0  0
  9 10  2  0  0  0
 10 11  1  0  0  0
 11 12  2  0  0  0
 12 13  1  0  0  0
 13 14  1  0  0  0
 13 15  2  0  0  0
 15 16  1  0  0  0
 10  3  1  0  0  0
 16 11  1  0  0  0
 14 17  1  0  0  0
 14 18  1  0  0  0
 16 19  1  0  0  0
M  END
>  <CHROM.0>
-59.88758699,69.39979018

>  <CHROM.1>
-82.70832029,-171.18939606,66.39112249,-3.94476082,27.35338149,4.35943131
-0.98700879,0.05812236,3.02207060

>  <Name>
a4c1a0f5-d8ad-4cc8-a694-54faea3fb436

>  <RI>
3.72012e+07

>  <Rbt.Current_Directory>
/data/work/jku/5V6S/work/40/8dba899c20c42488f2b1a17844994e

>  <Rbt.Executable>
rbdock ($Id: //depot/dev/client3/rdock/2013.1/src/exe/rbdock.cxx#4 $)

>  <Rbt.Library>
libRbt.so (2013.1, Build901 2013/11/27)

>  <Rbt.Parameter_File>
/rDock_2013.1_src/data/scripts/dock.prm

>  <Rbt.Receptor>
docking.prm

>  <SCORE>
-14.1464

>  <SCORE.INTER>
-9.48502

>  <SCORE.INTER.CONST>
1

>  <SCORE.INTER.POLAR>
-0.894427

>  <SCORE.INTER.REPUL>
0

>  <SCORE.INTER.ROT>
3

>  <SCORE.INTER.VDW>
-14.844

>  <SCORE.INTER.norm>
-0.592814

>  <SCORE.INTRA>
-3.14888

>  <SCORE.INTRA.DIHEDRAL>
-5.43319

>  <SCORE.INTRA.DIHEDRAL.0>
10.9533

>  <SCORE.INTRA.POLAR>
-0.279748

>  <SCORE.INTRA.POLAR.0>
0

>  <SCORE.INTRA.REPUL>
0

>  <SCORE.INTRA.REPUL.0>
0

>  <SCORE.INTRA.VDW>
0.518863

>  <SCORE.INTRA.VDW.0>
-1.22299

>  <SCORE.INTRA.norm>
-0.196805

>  <SCORE.RESTR>
0

>  <SCORE.RESTR.CAVITY>
0

>  <SCORE.RESTR.norm>
0

>  <SCORE.SYSTEM>
-1.51254

>  <SCORE.SYSTEM.CONST>
0

>  <SCORE.SYSTEM.DIHEDRAL>
0.43492

>  <SCORE.SYSTEM.POLAR>
-0.503166

>  <SCORE.SYSTEM.VDW>
-0.019235

>  <SCORE.SYSTEM.norm>
-0.0945337

>  <SCORE.heavy>
16

>  <SCORE.norm>
-0.884152

>  <enum_code>
B

>  <enum_smi>
COc1c(Cl)cc(Cl)cc1-c1cc(N)n[nH]1

>  <sha256>
0220565b592d6bbf24b09234e18ce1e3bcd7b2483639a8f09b309f48b2132b18

>  <std_smi>
COc1c(Cl)cc(Cl)cc1-c1cc(N)n[nH]1

>  <uuid>
a4c1a0f5-d8ad-4cc8-a694-54faea3fb436

$$$$
a4c1a0f5-d8ad-4cc8-a694-54faea3fb436
  rDOCK(R)          3D
libRbt.so/2013.1/901 2013/11/27
 19 20  0  0  0  0  0  0  0  0999 V2000
   -4.2233   22.0187    4.1456 C   0  0  0  0  0  0
   -3.8066   23.1956    3.4498 O   0  0  0  0  0  0
   -4.3258   24.3198    4.0493 C   0  0  0  0  0  0
   -5.5603   24.8254    3.6088 C   0  0  0  0  0  0
   -6.4525   24.0577    2.3434 Cl  0  0  0  0  0  0
   -6.1001   25.9720    4.1883 C   0  0  0  0  0  0
   -5.3950   26.6246    5.1933 C   0  0  0  0  0  0
   -6.0527   28.0441    5.9104 Cl  0  0  0  0  0  0
   -4.1536   26.1493    5.6207 C   0  0  0  0  0  0
   -3.5957   24.9938    5.0501 C   0  0  0  0  0  0
   -2.2743   24.5426    5.4904 C   0  0  0  0  0  0
   -1.5374   24.8245    6.6259 C   0  0  0  0  0  0
   -0.3390   24.1021    6.4892 C   0  0  0  0  0  0
    0.6486   24.1076    7.3902 N   0  0  0  0  0  0
   -0.2948   23.4206    5.3517 N   0  0  0  0  0  0
   -1.4731   23.6914    4.7705 N   0  0  0  0  0  0
    0.3721   23.9465    8.3526 H   0  0  0  0  0  0
    1.5528   23.7168    7.1576 H   0  0  0  0  0  0
   -1.6640   23.2714    3.8680 H   0  0  0  0  0  0
  1  2  1  0  0  0
  2  3  1  0  0  0
  3  4  2  0  0  0
  4  5  1  0  0  0
  4  6  1  0  0  0
  6  7  2  0  0  0
  7  8  1  0  0  0
  7  9  1  0  0  0
  9 10  2  0  0  0
 10 11  1  0  0  0
 11 12  2  0  0  0
 12 13  1  0  0  0
 13 14  1  0  0  0
 13 15  2  0  0  0
 15 16  1  0  0  0
 10  3  1  0  0  0
 16 11  1  0  0  0
 14 17  1  0  0  0
 14 18  1  0  0  0
 16 19  1  0  0  0
M  END
>  <CHROM.0>
-59.88758699,68.73726099

>  <CHROM.1>
-91.49351941,-162.18183684,48.90800773,-3.85415302,24.85275592,4.83457359
0.03844255,0.47069744,-2.50101158

>  <Name>
a4c1a0f5-d8ad-4cc8-a694-54faea3fb436

>  <RI>
3.72012e+07

>  <Rbt.Current_Directory>
/data/work/jku/5V6S/work/40/8dba899c20c42488f2b1a17844994e

>  <Rbt.Executable>
rbdock ($Id: //depot/dev/client3/rdock/2013.1/src/exe/rbdock.cxx#4 $)

>  <Rbt.Library>
libRbt.so (2013.1, Build901 2013/11/27)

>  <Rbt.Parameter_File>
/rDock_2013.1_src/data/scripts/dock.prm

>  <Rbt.Receptor>
docking.prm

>  <SCORE>
-13.7957

>  <SCORE.INTER>
-9.69643

>  <SCORE.INTER.CONST>
1

>  <SCORE.INTER.POLAR>
-0.384828

>  <SCORE.INTER.REPUL>
0

>  <SCORE.INTER.ROT>
3

>  <SCORE.INTER.VDW>
-16.788

>  <SCORE.INTER.norm>
-0.606027

>  <SCORE.INTRA>
-2.58577

>  <SCORE.INTRA.DIHEDRAL>
-4.36419

>  <SCORE.INTRA.DIHEDRAL.0>
10.9533

>  <SCORE.INTRA.POLAR>
-0.183803

>  <SCORE.INTRA.POLAR.0>
0

>  <SCORE.INTRA.REPUL>
0

>  <SCORE.INTRA.REPUL.0>
0

>  <SCORE.INTRA.VDW>
0.221256

>  <SCORE.INTRA.VDW.0>
-1.22299

>  <SCORE.INTRA.norm>
-0.161611

>  <SCORE.RESTR>
0

>  <SCORE.RESTR.CAVITY>
0

>  <SCORE.RESTR.norm>
0

>  <SCORE.SYSTEM>
-1.51353

>  <SCORE.SYSTEM.CONST>
0

>  <SCORE.SYSTEM.DIHEDRAL>
0.377828

>  <SCORE.SYSTEM.POLAR>
-0.502797

>  <SCORE.SYSTEM.VDW>
0.00706909

>  <SCORE.SYSTEM.norm>
-0.0945955

>  <SCORE.heavy>
16

>  <SCORE.norm>
-0.862233

>  <enum_code>
B

>  <enum_smi>
COc1c(Cl)cc(Cl)cc1-c1cc(N)n[nH]1

>  <sha256>
0220565b592d6bbf24b09234e18ce1e3bcd7b2483639a8f09b309f48b2132b18

>  <std_smi>
COc1c(Cl)cc(Cl)cc1-c1cc(N)n[nH]1

>  <uuid>
a4c1a0f5-d8ad-4cc8-a694-54faea3fb436

$$$$
b1677a49-2a8d-45d3-b042-2587fc1b694c
  rDOCK(R)          3D
libRbt.so/2013.1/901 2013/11/27
 19 20  0  0  0  0  0  0  0  0999 V2000
   -4.1472   28.4830    5.4531 C   0  0  0  0  0  0
   -2.8562   29.0501    5.6981 O   0  0  0  0  0  0
   -2.2985   29.4945    4.5201 C   0  0  0  0  0  0
   -2.6479   30.7739    4.0488 C   0  0  0  0  0  0
   -3.7351   31.7957    4.9224 Cl  0  0  0  0  0  0
   -2.1302   31.2509    2.8480 C   0  0  0  0  0  0
   -1.2822   30.4393    2.1069 C   0  0  0  0  0  0
   -0.6422   31.0143    0.6161 Cl  0  0  0  0  0  0
   -0.9535   29.1551    2.5486 C   0  0  0  0  0  0
   -1.4560   28.6487    3.7627 C   0  0  0  0  0  0
   -1.1187   27.2645    4.1655 C   0  0  0  0  0  0
   -1.3904   26.6733    5.3495 C   0  0  0  0  0  0
   -0.7407   25.3417    5.2046 C   0  0  0  0  0  0
   -0.8513   24.3718    6.0414 N   0  0  0  0  0  0
   -0.0440   25.2877    4.0167 N   0  0  0  0  0  0
   -0.4222   26.4013    3.3152 N   0  0  0  0  0  0
   -1.4309   24.6525    6.8371 H   0  0  0  0  0  0
   -0.0592   24.3755    3.5664 H   0  0  0  0  0  0
    0.2664   26.8689    2.7206 H   0  0  0  0  0  0
  1  2  1  0  0  0
  2  3  1  0  0  0
  3  4  2  0  0  0
  4  5  1  0  0  0
  4  6  1  0  0  0
  6  7  2  0  0  0
  7  8  1  0  0  0
  7  9  1  0  0  0
  9 10  2  0  0  0
 10 11  1  0  0  0
 11 12  2  0  0  0
 12 13  1  0  0  0
 13 14  2  0  0  0
 13 15  1  0  0  0
 15 16  1  0  0  0
 10  3  1  0  0  0
 16 11  1  0  0  0
 14 17  1  0  0  0
 15 18  1  0  0  0
 16 19  1  0  0  0
M  END
>  <CHROM.0>
-59.88758699,68.63188021

>  <CHROM.1>
83.91327368,-9.56731571,-1.76596029,28.90585185,3.85857984,1.24325677,-0.85514584
2.52880944

>  <Name>
b1677a49-2a8d-45d3-b042-2587fc1b694c

>  <RI>
3.68489e+07

>  <Rbt.Current_Directory>
/data/work/jku/5V6S/work/40/8dba899c20c42488f2b1a17844994e

>  <Rbt.Executable>
rbdock ($Id: //depot/dev/client3/rdock/2013.1/src/exe/rbdock.cxx#4 $)

>  <Rbt.Library>
libRbt.so (2013.1, Build901 2013/11/27)

>  <Rbt.Parameter_File>
/rDock_2013.1_src/data/scripts/dock.prm

>  <Rbt.Receptor>
docking.prm

>  <SCORE>
-9.18093

>  <SCORE.INTER>
-7.87665

>  <SCORE.INTER.CONST>
1

>  <SCORE.INTER.POLAR>
0

>  <SCORE.INTER.REPUL>
0

>  <SCORE.INTER.ROT>
2

>  <SCORE.INTER.VDW>
-15.2766

>  <SCORE.INTER.norm>
-0.492291

>  <SCORE.INTRA>
0.209021

>  <SCORE.INTRA.DIHEDRAL>
-1.15701

>  <SCORE.INTRA.DIHEDRAL.0>
6.17452

>  <SCORE.INTRA.POLAR>
0.00300345

>  <SCORE.INTRA.POLAR.0>
-0.00300345

>  <SCORE.INTRA.REPUL>
0

>  <SCORE.INTRA.REPUL.0>
0

>  <SCORE.INTRA.VDW>
0.777313

>  <SCORE.INTRA.VDW.0>
-0.792359

>  <SCORE.INTRA.norm>
0.0130638

>  <SCORE.RESTR>
0

>  <SCORE.RESTR.CAVITY>
0

>  <SCORE.RESTR.norm>
0

>  <SCORE.SYSTEM>
-1.5133

>  <SCORE.SYSTEM.CONST>
0

>  <SCORE.SYSTEM.DIHEDRAL>
0.369104

>  <SCORE.SYSTEM.POLAR>
-0.502706

>  <SCORE.SYSTEM.VDW>
0.0113456

>  <SCORE.SYSTEM.norm>
-0.0945814

>  <SCORE.heavy>
16

>  <SCORE.norm>
-0.573808

>  <enum_code>
T

>  <enum_smi>
COc1c(Cl)cc(Cl)cc1-c1cc(=N)[nH][nH]1

>  <sha256>
0220565b592d6bbf24b09234e18ce1e3bcd7b2483639a8f09b309f48b2132b18

>  <std_smi>
COc1c(Cl)cc(Cl)cc1-c1cc(N)n[nH]1

>  <uuid>
b1677a49-2a8d-45d3-b042-2587fc1b694c

$$$$
b1677a49-2a8d-45d3-b042-2587fc1b694c
  rDOCK(R)          3D
libRbt.so/2013.1/901 2013/11/27
 19 20  0  0  0  0  0  0  0  0999 V2000
   -2.3340   33.8173    2.5519 C   0  0  0  0  0  0
   -1.2071   33.2477    3.2257 O   0  0  0  0  0  0
   -1.2341   31.8747    3.1247 C   0  0  0  0  0  0
   -1.7277   31.1279    4.2109 C   0  0  0  0  0  0
   -2.3146   31.8942    5.6453 Cl  0  0  0  0  0  0
   -1.7460   29.7369    4.1625 C   0  0  0  0  0  0
   -1.2488   29.0923    3.0381 C   0  0  0  0  0  0
   -1.2580   27.3725    2.9697 Cl  0  0  0  0  0  0
   -0.7268   29.8220    1.9670 C   0  0  0  0  0  0
   -0.7020   31.2299    1.9845 C   0  0  0  0  0  0
   -0.0949   31.9582    0.8474 C   0  0  0  0  0  0
    0.5184   33.1612    0.8870 C   0  0  0  0  0  0
    0.8328   33.4131   -0.5462 C   0  0  0  0  0  0
    1.5455   34.3893   -0.9847 N   0  0  0  0  0  0
    0.2874   32.4171   -1.3270 N   0  0  0  0  0  0
   -0.1280   31.4479   -0.4532 N   0  0  0  0  0  0
    1.8474   34.9860   -0.2096 H   0  0  0  0  0  0
    0.8533   32.1636   -2.1336 H   0  0  0  0  0  0
   -0.9745   30.9161   -0.6702 H   0  0  0  0  0  0
  1  2  1  0  0  0
  2  3  1  0  0  0
  3  4  2  0  0  0
  4  5  1  0  0  0
  4  6  1  0  0  0
  6  7  2  0  0  0
  7  8  1  0  0  0
  7  9  1  0  0  0
  9 10  2  0  0  0
 10 11  1  0  0  0
 11 12  2  0  0  0
 12 13  1  0  0  0
 13 14  2  0  0  0
 13 15  1  0  0  0
 15 16  1  0  0  0
 10  3  1  0  0  0
 16 11  1  0  0  0
 14 17  1  0  0  0
 15 18  1  0  0  0
 16 19  1  0  0  0
M  END
>  <CHROM.0>
-59.88758699,68.65922851

>  <CHROM.1>
-99.24074242,27.97195605,-0.89508645,31.34426299,2.31313878,0.56508883,1.11562323
0.04038908

>  <Name>
b1677a49-2a8d-45d3-b042-2587fc1b694c

>  <RI>
3.68489e+07

>  <Rbt.Current_Directory>
/data/work/jku/5V6S/work/40/8dba899c20c42488f2b1a17844994e

>  <Rbt.Executable>
rbdock ($Id: //depot/dev/client3/rdock/2013.1/src/exe/rbdock.cxx#4 $)

>  <Rbt.Library>
libRbt.so (2013.1, Build901 2013/11/27)

>  <Rbt.Parameter_File>
/rDock_2013.1_src/data/scripts/dock.prm

>  <Rbt.Receptor>
docking.prm

>  <SCORE>
-3.99575

>  <SCORE.INTER>
-3.36882

>  <SCORE.INTER.CONST>
1

>  <SCORE.INTER.POLAR>
-1.14783

>  <SCORE.INTER.REPUL>
0.330539

>  <SCORE.INTER.ROT>
2

>  <SCORE.INTER.VDW>
-8.51889

>  <SCORE.INTER.norm>
-0.210551

>  <SCORE.INTRA>
0.886442

>  <SCORE.INTRA.DIHEDRAL>
1.66988

>  <SCORE.INTRA.DIHEDRAL.0>
6.17452

>  <SCORE.INTRA.POLAR>
0.00300345

>  <SCORE.INTRA.POLAR.0>
-0.00300345

>  <SCORE.INTRA.REPUL>
0

>  <SCORE.INTRA.REPUL.0>
0

>  <SCORE.INTRA.VDW>
0.0412912

>  <SCORE.INTRA.VDW.0>
-0.792359

>  <SCORE.INTRA.norm>
0.0554026

>  <SCORE.RESTR>
0

>  <SCORE.RESTR.CAVITY>
0

>  <SCORE.RESTR.norm>
0

>  <SCORE.SYSTEM>
-1.51337

>  <SCORE.SYSTEM.CONST>
0

>  <SCORE.SYSTEM.DIHEDRAL>
0.371358

>  <SCORE.SYSTEM.POLAR>
-0.502731

>  <SCORE.SYSTEM.VDW>
0.0102333

>  <SCORE.SYSTEM.norm>
-0.0945857

>  <SCORE.heavy>
16

>  <SCORE.norm>
-0.249734

>  <enum_code>
T

>  <enum_smi>
COc1c(Cl)cc(Cl)cc1-c1cc(=N)[nH][nH]1

>  <sha256>
0220565b592d6bbf24b09234e18ce1e3bcd7b2483639a8f09b309f48b2132b18

>  <std_smi>
COc1c(Cl)cc(Cl)cc1-c1cc(N)n[nH]1

>  <uuid>
b1677a49-2a8d-45d3-b042-2587fc1b694c

$$$$
b1677a49-2a8d-45d3-b042-2587fc1b694c
  rDOCK(R)          3D
libRbt.so/2013.1/901 2013/11/27
 19 20  0  0  0  0  0  0  0  0999 V2000
   -5.1284   27.9418    4.4566 C   0  0  0  0  0  0
   -5.3792   26.8169    5.3052 O   0  0  0  0  0  0
   -5.4260   25.6588    4.5617 C   0  0  0  0  0  0
   -6.6204   25.3359    3.8907 C   0  0  0  0  0  0
   -8.0076   26.3652    3.9636 Cl  0  0  0  0  0  0
   -6.7208   24.1606    3.1518 C   0  0  0  0  0  0
   -5.6351   23.2969    3.1035 C   0  0  0  0  0  0
   -5.7496   21.8362    2.2002 Cl  0  0  0  0  0  0
   -4.4552   23.5911    3.7916 C   0  0  0  0  0  0
   -4.3220   24.7759    4.5410 C   0  0  0  0  0  0
   -3.0702   25.0212    5.2925 C   0  0  0  0  0  0
   -2.0277   24.1737    5.4341 C   0  0  0  0  0  0
   -1.1241   24.9202    6.3519 C   0  0  0  0  0  0
    0.0689   24.5594    6.6676 N   0  0  0  0  0  0
   -1.7388   26.0795    6.7731 N   0  0  0  0  0  0
   -2.8528   26.2137    5.9880 N   0  0  0  0  0  0
    0.3028   23.6703    6.2174 H   0  0  0  0  0  0
   -1.1053   26.8666    6.8930 H   0  0  0  0  0  0
   -3.6994   26.6181    6.3956 H   0  0  0  0  0  0
  1  2  1  0  0  0
  2  3  1  0  0  0
  3  4  2  0  0  0
  4  5  1  0  0  0
  4  6  1  0  0  0
  6  7  2  0  0  0
  7  8  1  0  0  0
  7  9  1  0  0  0
  9 10  2  0  0  0
 10 11  1  0  0  0
 11 12  2  0  0  0
 12 13  1  0  0  0
 13 14  2  0  0  0
 13 15  1  0  0  0
 15 16  1  0  0  0
 10  3  1  0  0  0
 16 11  1  0  0  0
 14 17  1  0  0  0
 15 18  1  0  0  0
 16 19  1  0  0  0
M  END
>  <CHROM.0>
-59.88758699,68.63935227

>  <CHROM.1>
-81.63192118,172.89228572,-4.66993284,24.94468478,4.48090472,0.35393981,-0.40724667
0.47634962

>  <Name>
b1677a49-2a8d-45d3-b042-2587fc1b694c

>  <RI>
3.68489e+07

>  <Rbt.Current_Directory>
/data/work/jku/5V6S/work/40/8dba899c20c42488f2b1a17844994e

>  <Rbt.Executable>
rbdock ($Id: //depot/dev/client3/rdock/2013.1/src/exe/rbdock.cxx#4 $)

>  <Rbt.Library>
libRbt.so (2013.1, Build901 2013/11/27)

>  <Rbt.Parameter_File>
/rDock_2013.1_src/data/scripts/dock.prm

>  <Rbt.Receptor>
docking.prm

>  <SCORE>
-12.6853

>  <SCORE.INTER>
-9.82936

>  <SCORE.INTER.CONST>
1

>  <SCORE.INTER.POLAR>
0

>  <SCORE.INTER.REPUL>
0

>  <SCORE.INTER.ROT>
2

>  <SCORE.INTER.VDW>
-17.2294

>  <SCORE.INTER.norm>
-0.614335

>  <SCORE.INTRA>
-1.34267

>  <SCORE.INTRA.DIHEDRAL>
-1.40959

>  <SCORE.INTRA.DIHEDRAL.0>
6.17452

>  <SCORE.INTRA.POLAR>
-0.367645

>  <SCORE.INTRA.POLAR.0>
-0.00300345

>  <SCORE.INTRA.REPUL>
0

>  <SCORE.INTRA.REPUL.0>
0

>  <SCORE.INTRA.VDW>
0.612121

>  <SCORE.INTRA.VDW.0>
-0.792359

>  <SCORE.INTRA.norm>
-0.0839168

>  <SCORE.RESTR>
0

>  <SCORE.RESTR.CAVITY>
0

>  <SCORE.RESTR.norm>
0

>  <SCORE.SYSTEM>
-1.51332

>  <SCORE.SYSTEM.CONST>
0

>  <SCORE.SYSTEM.DIHEDRAL>
0.369719

>  <SCORE.SYSTEM.POLAR>
-0.502713

>  <SCORE.SYSTEM.VDW>
0.0110416

>  <SCORE.SYSTEM.norm>
-0.0945826

>  <SCORE.heavy>
16

>  <SCORE.norm>
-0.792834

>  <enum_code>
T

>  <enum_smi>
COc1c(Cl)cc(Cl)cc1-c1cc(=N)[nH][nH]1

>  <sha256>
0220565b592d6bbf24b09234e18ce1e3bcd7b2483639a8f09b309f48b2132b18

>  <std_smi>
COc1c(Cl)cc(Cl)cc1-c1cc(N)n[nH]1

>  <uuid>
b1677a49-2a8d-45d3-b042-2587fc1b694c

$$$$
b1677a49-2a8d-45d3-b042-2587fc1b694c
  rDOCK(R)          3D
libRbt.so/2013.1/901 2013/11/27
 19 20  0  0  0  0  0  0  0  0999 V2000
   -1.1027   24.1664    4.6360 C   0  0  0  0  0  0
   -2.2482   24.0615    5.4877 O   0  0  0  0  0  0
   -3.4002   24.0136    4.7349 C   0  0  0  0  0  0
   -3.7882   22.7828    4.1730 C   0  0  0  0  0  0
   -2.8677   21.3412    4.4252 Cl  0  0  0  0  0  0
   -4.9297   22.6955    3.3813 C   0  0  0  0  0  0
   -5.6698   23.8431    3.1321 C   0  0  0  0  0  0
   -7.0786   23.7499    2.1477 Cl  0  0  0  0  0  0
   -5.2768   25.0766    3.6580 C   0  0  0  0  0  0
   -4.1310   25.1941    4.4682 C   0  0  0  0  0  0
   -3.7271   26.5299    4.9628 C   0  0  0  0  0  0
   -2.6508   26.8234    5.7247 C   0  0  0  0  0  0
   -2.8179   28.2813    5.9755 C   0  0  0  0  0  0
   -1.9500   29.0351    6.5514 N   0  0  0  0  0  0
   -4.0193   28.7111    5.4547 N   0  0  0  0  0  0
   -4.4843   27.6730    4.6922 N   0  0  0  0  0  0
   -1.1348   28.4857    6.8370 H   0  0  0  0  0  0
   -3.9926   29.6518    5.0681 H   0  0  0  0  0  0
   -5.4922   27.5038    4.6489 H   0  0  0  0  0  0
  1  2  1  0  0  0
  2  3  1  0  0  0
  3  4  2  0  0  0
  4  5  1  0  0  0
  4  6  1  0  0  0
  6  7  2  0  0  0
  7  8  1  0  0  0
  7  9  1  0  0  0
  9 10  2  0  0  0
 10 11  1  0  0  0
 11 12  2  0  0  0
 12 13  1  0  0  0
 13 14  2  0  0  0
 13 15  1  0  0  0
 15 16  1  0  0  0
 10  3  1  0  0  0
 16 11  1  0  0  0
 14 17  1  0  0  0
 15 18  1  0  0  0
 16 19  1  0  0  0
M  END
>  <CHROM.0>
-59.88758699,-62.61240751

>  <CHROM.1>
81.68331951,-0.62261458,-3.92223166,24.83558217,4.40492424,-1.19860842,0.51371123
-2.90938162

>  <Name>
b1677a49-2a8d-45d3-b042-2587fc1b694c

>  <RI>
3.68489e+07

>  <Rbt.Current_Directory>
/data/work/jku/5V6S/work/40/8dba899c20c42488f2b1a17844994e

>  <Rbt.Executable>
rbdock ($Id: //depot/dev/client3/rdock/2013.1/src/exe/rbdock.cxx#4 $)

>  <Rbt.Library>
libRbt.so (2013.1, Build901 2013/11/27)

>  <Rbt.Parameter_File>
/rDock_2013.1_src/data/scripts/dock.prm

>  <Rbt.Receptor>
docking.prm

>  <SCORE>
-6.33223

>  <SCORE.INTER>
-7.56101

>  <SCORE.INTER.CONST>
1

>  <SCORE.INTER.POLAR>
0

>  <SCORE.INTER.REPUL>
0

>  <SCORE.INTER.ROT>
2

>  <SCORE.INTER.VDW>
-14.961

>  <SCORE.INTER.norm>
-0.472563

>  <SCORE.INTRA>
0.207249

>  <SCORE.INTRA.DIHEDRAL>
-1.43059

>  <SCORE.INTRA.DIHEDRAL.0>
6.17452

>  <SCORE.INTRA.POLAR>
0.00300345

>  <SCORE.INTRA.POLAR.0>
-0.00300345

>  <SCORE.INTRA.REPUL>
0

>  <SCORE.INTRA.REPUL.0>
0

>  <SCORE.INTRA.VDW>
0.912333

>  <SCORE.INTRA.VDW.0>
-0.792359

>  <SCORE.INTRA.norm>
0.0129531

>  <SCORE.RESTR>
0

>  <SCORE.RESTR.CAVITY>
0

>  <SCORE.RESTR.norm>
0

>  <SCORE.SYSTEM>
1.02153

>  <SCORE.SYSTEM.CONST>
0

>  <SCORE.SYSTEM.DIHEDRAL>
0.0412572

>  <SCORE.SYSTEM.REPUL>
0.141282

>  <SCORE.SYSTEM.VDW>
0.294489

>  <SCORE.SYSTEM.norm>
0.0638456

>  <SCORE.heavy>
16

>  <SCORE.norm>
-0.395764

>  <enum_code>
T

>  <enum_smi>
COc1c(Cl)cc(Cl)cc1-c1cc(=N)[nH][nH]1

>  <sha256>
0220565b592d6bbf24b09234e18ce1e3bcd7b2483639a8f09b309f48b2132b18

>  <std_smi>
COc1c(Cl)cc(Cl)cc1-c1cc(N)n[nH]1

>  <uuid>
b1677a49-2a8d-45d3-b042-2587fc1b694c

$$$$
b1677a49-2a8d-45d3-b042-2587fc1b694c
  rDOCK(R)          3D
libRbt.so/2013.1/901 2013/11/27
 19 20  0  0  0  0  0  0  0  0999 V2000
   -5.0022   24.7658    4.2285 C   0  0  0  0  0  0
   -4.2153   25.1995    5.3425 O   0  0  0  0  0  0
   -3.5835   26.3869    5.0475 C   0  0  0  0  0  0
   -4.3106   27.5860    5.1686 C   0  0  0  0  0  0
   -5.9571   27.5982    5.6960 Cl  0  0  0  0  0  0
   -3.7198   28.8061    4.8527 C   0  0  0  0  0  0
   -2.4101   28.8249    4.3931 C   0  0  0  0  0  0
   -1.6711   30.3265    3.9909 Cl  0  0  0  0  0  0
   -1.6888   27.6383    4.2381 C   0  0  0  0  0  0
   -2.2577   26.3901    4.5568 C   0  0  0  0  0  0
   -1.4712   25.1563    4.3304 C   0  0  0  0  0  0
   -1.8791   23.8841    4.5305 C   0  0  0  0  0  0
   -0.6520   23.0977    4.2272 C   0  0  0  0  0  0
   -0.5973   21.8153    4.1522 N   0  0  0  0  0  0
    0.4040   23.9509    3.9907 N   0  0  0  0  0  0
   -0.1462   25.2008    3.8884 N   0  0  0  0  0  0
   -1.5139   21.4073    4.3556 H   0  0  0  0  0  0
    1.0528   23.6229    3.2789 H   0  0  0  0  0  0
    0.3823   26.0040    4.2376 H   0  0  0  0  0  0
  1  2  1  0  0  0
  2  3  1  0  0  0
  3  4  2  0  0  0
  4  5  1  0  0  0
  4  6  1  0  0  0
  6  7  2  0  0  0
  7  8  1  0  0  0
  7  9  1  0  0  0
  9 10  2  0  0  0
 10 11  1  0  0  0
 11 12  2  0  0  0
 12 13  1  0  0  0
 13 14  2  0  0  0
 13 15  1  0  0  0
 15 16  1  0  0  0
 10  3  1  0  0  0
 16 11  1  0  0  0
 14 17  1  0  0  0
 15 18  1  0  0  0
 16 19  1  0  0  0
M  END
>  <CHROM.0>
-59.88758699,69.23739990

>  <CHROM.1>
81.25602010,0.86905213,-2.67015419,26.46794845,4.58449337,1.04661763,-0.27924704
3.10320017

>  <Name>
b1677a49-2a8d-45d3-b042-2587fc1b694c

>  <RI>
3.68489e+07

>  <Rbt.Current_Directory>
/data/work/jku/5V6S/work/40/8dba899c20c42488f2b1a17844994e

>  <Rbt.Executable>
rbdock ($Id: //depot/dev/client3/rdock/2013.1/src/exe/rbdock.cxx#4 $)

>  <Rbt.Library>
libRbt.so (2013.1, Build901 2013/11/27)

>  <Rbt.Parameter_File>
/rDock_2013.1_src/data/scripts/dock.prm

>  <Rbt.Receptor>
docking.prm

>  <SCORE>
-10.1653

>  <SCORE.INTER>
-8.88013

>  <SCORE.INTER.CONST>
1

>  <SCORE.INTER.POLAR>
-0.0893975

>  <SCORE.INTER.REPUL>
0

>  <SCORE.INTER.ROT>
2

>  <SCORE.INTER.VDW>
-15.9762

>  <SCORE.INTER.norm>
-0.555008

>  <SCORE.INTRA>
0.227981

>  <SCORE.INTRA.DIHEDRAL>
-1.41832

>  <SCORE.INTRA.DIHEDRAL.0>
6.17452

>  <SCORE.INTRA.POLAR>
0.00300345

>  <SCORE.INTRA.POLAR.0>
-0.00300345

>  <SCORE.INTRA.REPUL>
0

>  <SCORE.INTRA.REPUL.0>
0

>  <SCORE.INTRA.VDW>
0.926929

>  <SCORE.INTRA.VDW.0>
-0.792359

>  <SCORE.INTRA.norm>
0.0142488

>  <SCORE.RESTR>
0

>  <SCORE.RESTR.CAVITY>
0

>  <SCORE.RESTR.norm>
0

>  <SCORE.SYSTEM>
-1.51316

>  <SCORE.SYSTEM.CONST>
0

>  <SCORE.SYSTEM.DIHEDRAL>
0.420571

>  <SCORE.SYSTEM.POLAR>
-0.503108

>  <SCORE.SYSTEM.VDW>
-0.01288

>  <SCORE.SYSTEM.norm>
-0.0945727

>  <SCORE.heavy>
16

>  <SCORE.norm>
-0.635332

>  <enum_code>
T

>  <enum_smi>
COc1c(Cl)cc(Cl)cc1-c1cc(=N)[nH][nH]1

>  <sha256>
0220565b592d6bbf24b09234e18ce1e3bcd7b2483639a8f09b309f48b2132b18

>  <std_smi>
COc1c(Cl)cc(Cl)cc1-c1cc(N)n[nH]1

>  <uuid>
b1677a49-2a8d-45d3-b042-2587fc1b694c

$$$$
6d9aac0b-8ee4-4250-b6e9-41c98e48386b
  rDOCK(R)          3D
libRbt.so/2013.1/901 2013/11/27
 19 20  0  0  0  0  0  0  0  0999 V2000
    0.7592   33.4750   -0.0430 C   0  0  0  0  0  0
    0.9397   32.7461    1.1746 O   0  0  0  0  0  0
    0.2528   31.5559    1.1243 C   0  0  0  0  0  0
    0.8143   30.4703    0.4309 C   0  0  0  0  0  0
    2.3433   30.6013   -0.3655 Cl  0  0  0  0  0  0
    0.1463   29.2482    0.3662 C   0  0  0  0  0  0
   -1.0918   29.1130    0.9843 C   0  0  0  0  0  0
   -1.9185   27.6056    0.9121 Cl  0  0  0  0  0  0
   -1.6744   30.1903    1.6497 C   0  0  0  0  0  0
   -1.0192   31.4327    1.7138 C   0  0  0  0  0  0
   -1.6946   32.5472    2.3836 C   0  0  0  0  0  0
   -3.0661   32.6587    2.7475 C   0  0  0  0  0  0
   -3.1930   33.8827    3.3516 C   0  0  0  0  0  0
   -4.2550   34.5121    3.8859 N   0  0  0  0  0  0
   -1.9397   34.4244    3.3453 N   0  0  0  0  0  0
   -1.0137   33.6434    2.7631 N   0  0  0  0  0  0
   -4.2592   34.7532    4.8752 H   0  0  0  0  0  0
   -5.1883   34.4540    3.4872 H   0  0  0  0  0  0
   -1.6489   35.3159    3.7264 H   0  0  0  0  0  0
  1  2  1  0  0  0
  2  3  1  0  0  0
  3  4  2  0  0  0
  4  5  1  0  0  0
  4  6  1  0  0  0
  6  7  2  0  0  0
  7  8  1  0  0  0
  7  9  1  0  0  0
  9 10  2  0  0  0
 10 11  1  0  0  0
 11 12  1  0  0  0
 12 13  2  0  0  0
 13 14  1  0  0  0
 13 15  1  0  0  0
 15 16  1  0  0  0
 10  3  1  0  0  0
 16 11  2  0  0  0
 14 17  1  0  0  0
 14 18  1  0  0  0
 15 19  1  0  0  0
M  END
>  <CHROM.0>
-59.88758699,68.95755720

>  <CHROM.1>
79.80881022,164.45141627,118.36909574,-0.78144599,31.39043037,1.44003720
-2.18410315,-0.47905564,-2.86918209

>  <Name>
6d9aac0b-8ee4-4250-b6e9-41c98e48386b

>  <RI>
3.80695e+07

>  <Rbt.Current_Directory>
/data/work/jku/5V6S/work/40/8dba899c20c42488f2b1a17844994e

>  <Rbt.Executable>
rbdock ($Id: //depot/dev/client3/rdock/2013.1/src/exe/rbdock.cxx#4 $)

>  <Rbt.Library>
libRbt.so (2013.1, Build901 2013/11/27)

>  <Rbt.Parameter_File>
/rDock_2013.1_src/data/scripts/dock.prm

>  <Rbt.Receptor>
docking.prm

>  <SCORE>
13.6498

>  <SCORE.INTER>
15.434

>  <SCORE.INTER.CONST>
1

>  <SCORE.INTER.POLAR>
-1.67709

>  <SCORE.INTER.REPUL>
0

>  <SCORE.INTER.ROT>
3

>  <SCORE.INTER.VDW>
12.7361

>  <SCORE.INTER.norm>
0.964625

>  <SCORE.INTRA>
-1.09581

>  <SCORE.INTRA.DIHEDRAL>
-3.44095

>  <SCORE.INTRA.DIHEDRAL.0>
9.57124

>  <SCORE.INTRA.POLAR>
0

>  <SCORE.INTRA.POLAR.0>
0

>  <SCORE.INTRA.REPUL>
0

>  <SCORE.INTRA.REPUL.0>
0

>  <SCORE.INTRA.VDW>
0.62467

>  <SCORE.INTRA.VDW.0>
-1.10753

>  <SCORE.INTRA.norm>
-0.068488

>  <SCORE.RESTR>
0.825228

>  <SCORE.RESTR.CAVITY>
0.825228

>  <SCORE.RESTR.norm>
0.0515768

>  <SCORE.SYSTEM>
-1.51366

>  <SCORE.SYSTEM.CONST>
0

>  <SCORE.SYSTEM.DIHEDRAL>
0.396384

>  <SCORE.SYSTEM.POLAR>
-0.502959

>  <SCORE.SYSTEM.VDW>
-0.00178832

>  <SCORE.SYSTEM.norm>
-0.0946036

>  <SCORE.heavy>
16

>  <SCORE.norm>
0.853111

>  <enum_code>
T

>  <enum_smi>
COc1c(Cl)cc(Cl)cc1-c1cc(N)[nH]n1

>  <sha256>
0220565b592d6bbf24b09234e18ce1e3bcd7b2483639a8f09b309f48b2132b18

>  <std_smi>
COc1c(Cl)cc(Cl)cc1-c1cc(N)n[nH]1

>  <uuid>
6d9aac0b-8ee4-4250-b6e9-41c98e48386b

$$$$
6d9aac0b-8ee4-4250-b6e9-41c98e48386b
  rDOCK(R)          3D
libRbt.so/2013.1/901 2013/11/27
 19 20  0  0  0  0  0  0  0  0999 V2000
   -4.6092   21.1217    2.3532 C   0  0  0  0  0  0
   -4.6361   21.4773    3.7386 O   0  0  0  0  0  0
   -3.6651   22.4126    4.0098 C   0  0  0  0  0  0
   -2.3446   21.9846    4.2283 C   0  0  0  0  0  0
   -1.9171   20.3103    4.1715 Cl  0  0  0  0  0  0
   -1.3357   22.9079    4.4998 C   0  0  0  0  0  0
   -1.6481   24.2612    4.5662 C   0  0  0  0  0  0
   -0.4061   25.4057    4.8958 Cl  0  0  0  0  0  0
   -2.9591   24.6970    4.3816 C   0  0  0  0  0  0
   -3.9900   23.7776    4.1189 C   0  0  0  0  0  0
   -5.3590   24.2809    3.9799 C   0  0  0  0  0  0
   -5.7902   25.6205    3.7669 C   0  0  0  0  0  0
   -7.1584   25.5654    3.7004 C   0  0  0  0  0  0
   -8.0855   26.5225    3.5169 N   0  0  0  0  0  0
   -7.4780   24.2462    3.8484 N   0  0  0  0  0  0
   -6.4126   23.4459    4.0239 N   0  0  0  0  0  0
   -8.8423   26.3773    2.8512 H   0  0  0  0  0  0
   -7.9095   27.5048    3.7103 H   0  0  0  0  0  0
   -8.3992   23.8271    3.8324 H   0  0  0  0  0  0
  1  2  1  0  0  0
  2  3  1  0  0  0
  3  4  2  0  0  0
  4  5  1  0  0  0
  4  6  1  0  0  0
  6  7  2  0  0  0
  7  8  1  0  0  0
  7  9  1  0  0  0
  9 10  2  0  0  0
 10 11  1  0  0  0
 11 12  1  0  0  0
 12 13  2  0  0  0
 13 14  1  0  0  0
 13 15  1  0  0  0
 15 16  1  0  0  0
 10  3  1  0  0  0
 16 11  2  0  0  0
 14 17  1  0  0  0
 14 18  1  0  0  0
 15 19  1  0  0  0
M  END
>  <CHROM.0>
-59.88758699,68.87990067

>  <CHROM.1>
-82.15997435,-164.46144341,133.68132245,-3.79899837,23.48658357,4.05582963
0.39918105,0.18907465,-2.99856842

>  <Name>
6d9aac0b-8ee4-4250-b6e9-41c98e48386b

>  <RI>
3.80695e+07

>  <Rbt.Current_Directory>
/data/work/jku/5V6S/work/40/8dba899c20c42488f2b1a17844994e

>  <Rbt.Executable>
rbdock ($Id: //depot/dev/client3/rdock/2013.1/src/exe/rbdock.cxx#4 $)

>  <Rbt.Library>
libRbt.so (2013.1, Build901 2013/11/27)

>  <Rbt.Parameter_File>
/rDock_2013.1_src/data/scripts/dock.prm

>  <Rbt.Receptor>
docking.prm

>  <SCORE>
-13.2142

>  <SCORE.INTER>
-10.4032

>  <SCORE.INTER.CONST>
1

>  <SCORE.INTER.POLAR>
-0.856074

>  <SCORE.INTER.REPUL>
0.0592079

>  <SCORE.INTER.ROT>
3

>  <SCORE.INTER.VDW>
-16.1886

>  <SCORE.INTER.norm>
-0.650202

>  <SCORE.INTRA>
-1.29731

>  <SCORE.INTRA.DIHEDRAL>
-3.53235

>  <SCORE.INTRA.DIHEDRAL.0>
9.57124

>  <SCORE.INTRA.POLAR>
0

>  <SCORE.INTRA.POLAR.0>
0

>  <SCORE.INTRA.REPUL>
0

>  <SCORE.INTRA.REPUL.0>
0

>  <SCORE.INTRA.VDW>
0.468861

>  <SCORE.INTRA.VDW.0>
-1.10753

>  <SCORE.INTRA.norm>
-0.0810822

>  <SCORE.RESTR>
0

>  <SCORE.RESTR.CAVITY>
0

>  <SCORE.RESTR.norm>
0

>  <SCORE.SYSTEM>
-1.51366

>  <SCORE.SYSTEM.CONST>
0

>  <SCORE.SYSTEM.DIHEDRAL>
0.389794

>  <SCORE.SYSTEM.POLAR>
-0.502907

>  <SCORE.SYSTEM.VDW>
0.00132129

>  <SCORE.SYSTEM.norm>
-0.094604

>  <SCORE.heavy>
16

>  <SCORE.norm>
-0.825888

>  <enum_code>
T

>  <enum_smi>
COc1c(Cl)cc(Cl)cc1-c1cc(N)[nH]n1

>  <sha256>
0220565b592d6bbf24b09234e18ce1e3bcd7b2483639a8f09b309f48b2132b18

>  <std_smi>
COc1c(Cl)cc(Cl)cc1-c1cc(N)n[nH]1

>  <uuid>
6d9aac0b-8ee4-4250-b6e9-41c98e48386b

$$$$
6d9aac0b-8ee4-4250-b6e9-41c98e48386b
  rDOCK(R)          3D
libRbt.so/2013.1/901 2013/11/27
 19 20  0  0  0  0  0  0  0  0999 V2000
   -3.4394   27.2173    5.4422 C   0  0  0  0  0  0
   -3.9918   26.0650    6.0852 O   0  0  0  0  0  0
   -3.7369   24.9362    5.3424 C   0  0  0  0  0  0
   -2.5164   24.2623    5.5181 C   0  0  0  0  0  0
   -1.3276   24.8255    6.6400 Cl  0  0  0  0  0  0
   -2.2297   23.1116    4.7848 C   0  0  0  0  0  0
   -3.1585   22.6394    3.8640 C   0  0  0  0  0  0
   -2.8123   21.2168    2.9599 Cl  0  0  0  0  0  0
   -4.3601   23.3149    3.6576 C   0  0  0  0  0  0
   -4.6590   24.4833    4.3804 C   0  0  0  0  0  0
   -5.9137   25.1833    4.0929 C   0  0  0  0  0  0
   -6.4936   26.2797    4.7913 C   0  0  0  0  0  0
   -7.6570   26.5710    4.1273 C   0  0  0  0  0  0
   -8.6027   27.5028    4.3438 N   0  0  0  0  0  0
   -7.7146   25.6880    3.0874 N   0  0  0  0  0  0
   -6.6780   24.8336    3.0427 N   0  0  0  0  0  0
   -9.5071   27.2313    4.7248 H   0  0  0  0  0  0
   -8.6324   28.3854    3.8403 H   0  0  0  0  0  0
   -8.4272   25.6201    2.3719 H   0  0  0  0  0  0
  1  2  1  0  0  0
  2  3  1  0  0  0
  3  4  2  0  0  0
  4  5  1  0  0  0
  4  6  1  0  0  0
  6  7  2  0  0  0
  7  8  1  0  0  0
  7  9  1  0  0  0
  9 10  2  0  0  0
 10 11  1  0  0  0
 11 12  1  0  0  0
 12 13  2  0  0  0
 13 14  1  0  0  0
 13 15  1  0  0  0
 15 16  1  0  0  0
 10  3  1  0  0  0
 16 11  2  0  0  0
 14 17  1  0  0  0
 14 18  1  0  0  0
 15 19  1  0  0  0
M  END
>  <CHROM.0>
-59.88758699,68.44593338

>  <CHROM.1>
85.67104236,-8.34599023,-106.45316275,-4.31430587,24.63480382,4.56301318
-2.74797376,0.44780343,-2.53310517

>  <Name>
6d9aac0b-8ee4-4250-b6e9-41c98e48386b

>  <RI>
3.80695e+07

>  <Rbt.Current_Directory>
/data/work/jku/5V6S/work/40/8dba899c20c42488f2b1a17844994e

>  <Rbt.Executable>
rbdock ($Id: //depot/dev/client3/rdock/2013.1/src/exe/rbdock.cxx#4 $)

>  <Rbt.Library>
libRbt.so (2013.1, Build901 2013/11/27)

>  <Rbt.Parameter_File>
/rDock_2013.1_src/data/scripts/dock.prm

>  <Rbt.Receptor>
docking.prm

>  <SCORE>
-17.9944

>  <SCORE.INTER>
-15.2405

>  <SCORE.INTER.CONST>
1

>  <SCORE.INTER.POLAR>
-1.37565

>  <SCORE.INTER.REPUL>
0

>  <SCORE.INTER.ROT>
3

>  <SCORE.INTER.VDW>
-18.9633

>  <SCORE.INTER.norm>
-0.952533

>  <SCORE.INTRA>
-1.24353

>  <SCORE.INTRA.DIHEDRAL>
-4.01102

>  <SCORE.INTRA.DIHEDRAL.0>
9.57124

>  <SCORE.INTRA.POLAR>
0

>  <SCORE.INTRA.POLAR.0>
0

>  <SCORE.INTRA.REPUL>
0

>  <SCORE.INTRA.REPUL.0>
0

>  <SCORE.INTRA.VDW>
0.76198

>  <SCORE.INTRA.VDW.0>
-1.10753

>  <SCORE.INTRA.norm>
-0.0777206

>  <SCORE.RESTR>
0.00228665

>  <SCORE.RESTR.CAVITY>
0.00228665

>  <SCORE.RESTR.norm>
0.000142915

>  <SCORE.SYSTEM>
-1.51265

>  <SCORE.SYSTEM.CONST>
0

>  <SCORE.SYSTEM.DIHEDRAL>
0.35395

>  <SCORE.SYSTEM.POLAR>
-0.502523

>  <SCORE.SYSTEM.VDW>
0.0189545

>  <SCORE.SYSTEM.norm>
-0.0945404

>  <SCORE.heavy>
16

>  <SCORE.norm>
-1.12465

>  <enum_code>
T

>  <enum_smi>
COc1c(Cl)cc(Cl)cc1-c1cc(N)[nH]n1

>  <sha256>
0220565b592d6bbf24b09234e18ce1e3bcd7b2483639a8f09b309f48b2132b18

>  <std_smi>
COc1c(Cl)cc(Cl)cc1-c1cc(N)n[nH]1

>  <uuid>
6d9aac0b-8ee4-4250-b6e9-41c98e48386b

$$$$
6d9aac0b-8ee4-4250-b6e9-41c98e48386b
  rDOCK(R)          3D
libRbt.so/2013.1/901 2013/11/27
 19 20  0  0  0  0  0  0  0  0999 V2000
   -6.4218   23.9400    2.4796 C   0  0  0  0  0  0
   -6.0960   23.5415    3.8142 O   0  0  0  0  0  0
   -4.7413   23.6468    4.0263 C   0  0  0  0  0  0
   -3.9129   22.5554    3.7149 C   0  0  0  0  0  0
   -4.5599   21.0832    3.0799 Cl  0  0  0  0  0  0
   -2.5348   22.6320    3.9126 C   0  0  0  0  0  0
   -1.9834   23.7968    4.4346 C   0  0  0  0  0  0
   -0.2828   23.8990    4.6758 Cl  0  0  0  0  0  0
   -2.7967   24.8760    4.7762 C   0  0  0  0  0  0
   -4.1893   24.8102    4.5943 C   0  0  0  0  0  0
   -5.0055   25.9527    5.0134 C   0  0  0  0  0  0
   -4.5934   27.1256    5.7065 C   0  0  0  0  0  0
   -5.7234   27.8874    5.8542 C   0  0  0  0  0  0
   -5.9268   29.0860    6.4300 N   0  0  0  0  0  0
   -6.7223   27.1797    5.2494 N   0  0  0  0  0  0
   -6.3207   26.0043    4.7361 N   0  0  0  0  0  0
   -6.1329   29.1441    7.4256 H   0  0  0  0  0  0
   -6.2430   29.9005    5.9107 H   0  0  0  0  0  0
   -7.6938   27.4444    5.1469 H   0  0  0  0  0  0
  1  2  1  0  0  0
  2  3  1  0  0  0
  3  4  2  0  0  0
  4  5  1  0  0  0
  4  6  1  0  0  0
  6  7  2  0  0  0
  7  8  1  0  0  0
  7  9  1  0  0  0
  9 10  2  0  0  0
 10 11  1  0  0  0
 11 12  1  0  0  0
 12 13  2  0  0  0
 13 14  1  0  0  0
 13 15  1  0  0  0
 15 16  1  0  0  0
 10  3  1  0  0  0
 16 11  2  0  0  0
 14 17  1  0  0  0
 14 18  1  0  0  0
 15 19  1  0  0  0
M  END
>  <CHROM.0>
-59.88758699,69.31250316

>  <CHROM.1>
-88.24881514,173.66390506,-87.42506320,-4.21480225,24.51667310,4.42140846
2.10360210,-0.16582335,0.44107290

>  <Name>
6d9aac0b-8ee4-4250-b6e9-41c98e48386b

>  <RI>
3.80695e+07

>  <Rbt.Current_Directory>
/data/work/jku/5V6S/work/40/8dba899c20c42488f2b1a17844994e

>  <Rbt.Executable>
rbdock ($Id: //depot/dev/client3/rdock/2013.1/src/exe/rbdock.cxx#4 $)

>  <Rbt.Library>
libRbt.so (2013.1, Build901 2013/11/27)

>  <Rbt.Parameter_File>
/rDock_2013.1_src/data/scripts/dock.prm

>  <Rbt.Receptor>
docking.prm

>  <SCORE>
-15.3917

>  <SCORE.INTER>
-12.3551

>  <SCORE.INTER.CONST>
1

>  <SCORE.INTER.POLAR>
-1.07703

>  <SCORE.INTER.REPUL>
0

>  <SCORE.INTER.ROT>
3

>  <SCORE.INTER.VDW>
-17.0932

>  <SCORE.INTER.norm>
-0.772193

>  <SCORE.INTRA>
-1.52369

>  <SCORE.INTRA.DIHEDRAL>
-4.1348

>  <SCORE.INTRA.DIHEDRAL.0>
9.57124

>  <SCORE.INTRA.POLAR>
0

>  <SCORE.INTRA.POLAR.0>
0

>  <SCORE.INTRA.REPUL>
0

>  <SCORE.INTRA.REPUL.0>
0

>  <SCORE.INTRA.VDW>
0.543713

>  <SCORE.INTRA.VDW.0>
-1.10753

>  <SCORE.INTRA.norm>
-0.0952303

>  <SCORE.RESTR>
0

>  <SCORE.RESTR.CAVITY>
0

>  <SCORE.RESTR.norm>
0

>  <SCORE.SYSTEM>
-1.5129

>  <SCORE.SYSTEM.CONST>
0

>  <SCORE.SYSTEM.DIHEDRAL>
0.427179

>  <SCORE.SYSTEM.POLAR>
-0.503138

>  <SCORE.SYSTEM.VDW>
-0.0158265

>  <SCORE.SYSTEM.norm>
-0.0945566

>  <SCORE.heavy>
16

>  <SCORE.norm>
-0.96198

>  <enum_code>
T

>  <enum_smi>
COc1c(Cl)cc(Cl)cc1-c1cc(N)[nH]n1

>  <sha256>
0220565b592d6bbf24b09234e18ce1e3bcd7b2483639a8f09b309f48b2132b18

>  <std_smi>
COc1c(Cl)cc(Cl)cc1-c1cc(N)n[nH]1

>  <uuid>
6d9aac0b-8ee4-4250-b6e9-41c98e48386b

$$$$
6d9aac0b-8ee4-4250-b6e9-41c98e48386b
  rDOCK(R)          3D
libRbt.so/2013.1/901 2013/11/27
 19 20  0  0  0  0  0  0  0  0999 V2000
   -3.4352   27.2811    5.4010 C   0  0  0  0  0  0
   -3.9641   26.1331    6.0709 O   0  0  0  0  0  0
   -3.7086   24.9956    5.3417 C   0  0  0  0  0  0
   -2.4832   24.3307    5.5175 C   0  0  0  0  0  0
   -1.2892   24.9155    6.6228 Cl  0  0  0  0  0  0
   -2.1957   23.1716    4.7979 C   0  0  0  0  0  0
   -3.1286   22.6818    3.8906 C   0  0  0  0  0  0
   -2.7813   21.2489    3.0035 Cl  0  0  0  0  0  0
   -4.3353   23.3480    3.6840 C   0  0  0  0  0  0
   -4.6353   24.5247    4.3928 C   0  0  0  0  0  0
   -5.8958   25.2139    4.1051 C   0  0  0  0  0  0
   -6.4891   26.3001    4.8082 C   0  0  0  0  0  0
   -7.6529   26.5840    4.1418 C   0  0  0  0  0  0
   -8.6086   27.5050    4.3605 N   0  0  0  0  0  0
   -7.6980   25.7070    3.0961 N   0  0  0  0  0  0
   -6.6528   24.8633    3.0499 N   0  0  0  0  0  0
   -9.5347   27.2144    4.6685 H   0  0  0  0  0  0
   -8.6069   28.4181    3.9139 H   0  0  0  0  0  0
   -8.4073   25.6366    2.3776 H   0  0  0  0  0  0
  1  2  1  0  0  0
  2  3  1  0  0  0
  3  4  2  0  0  0
  4  5  1  0  0  0
  4  6  1  0  0  0
  6  7  2  0  0  0
  7  8  1  0  0  0
  7  9  1  0  0  0
  9 10  2  0  0  0
 10 11  1  0  0  0
 11 12  1  0  0  0
 12 13  2  0  0  0
 13 14  1  0  0  0
 13 15  1  0  0  0
 15 16  1  0  0  0
 10  3  1  0  0  0
 16 11  2  0  0  0
 14 17  1  0  0  0
 14 18  1  0  0  0
 15 19  1  0  0  0
M  END
>  <CHROM.0>
-59.88758699,68.86356841

>  <CHROM.1>
86.28465547,-9.68073507,-111.14491646,-4.29122195,24.67998852,4.57106427
-2.74894926,0.43837325,-2.54480688

>  <Name>
6d9aac0b-8ee4-4250-b6e9-41c98e48386b

>  <RI>
3.80695e+07

>  <Rbt.Current_Directory>
/data/work/jku/5V6S/work/40/8dba899c20c42488f2b1a17844994e

>  <Rbt.Executable>
rbdock ($Id: //depot/dev/client3/rdock/2013.1/src/exe/rbdock.cxx#4 $)

>  <Rbt.Library>
libRbt.so (2013.1, Build901 2013/11/27)

>  <Rbt.Parameter_File>
/rDock_2013.1_src/data/scripts/dock.prm

>  <Rbt.Receptor>
docking.prm

>  <SCORE>
-18.0974

>  <SCORE.INTER>
-15.3549

>  <SCORE.INTER.CONST>
1

>  <SCORE.INTER.POLAR>
-1.40072

>  <SCORE.INTER.REPUL>
0

>  <SCORE.INTER.ROT>
3

>  <SCORE.INTER.VDW>
-18.9925

>  <SCORE.INTER.norm>
-0.959683

>  <SCORE.INTRA>
-1.23667

>  <SCORE.INTRA.DIHEDRAL>
-3.90849

>  <SCORE.INTRA.DIHEDRAL.0>
9.57124

>  <SCORE.INTRA.POLAR>
0

>  <SCORE.INTRA.POLAR.0>
0

>  <SCORE.INTRA.REPUL>
0

>  <SCORE.INTRA.REPUL.0>
0

>  <SCORE.INTRA.VDW>
0.717572

>  <SCORE.INTRA.VDW.0>
-1.10753

>  <SCORE.INTRA.norm>
-0.0772921

>  <SCORE.RESTR>
0.00786672

>  <SCORE.RESTR.CAVITY>
0.00786672

>  <SCORE.RESTR.norm>
0.00049167

>  <SCORE.SYSTEM>
-1.51366

>  <SCORE.SYSTEM.CONST>
0

>  <SCORE.SYSTEM.DIHEDRAL>
0.388415

>  <SCORE.SYSTEM.POLAR>
-0.502895

>  <SCORE.SYSTEM.VDW>
0.00197704

>  <SCORE.SYSTEM.norm>
-0.0946037

>  <SCORE.heavy>
16

>  <SCORE.norm>
-1.13109

>  <enum_code>
T

>  <enum_smi>
COc1c(Cl)cc(Cl)cc1-c1cc(N)[nH]n1

>  <sha256>
0220565b592d6bbf24b09234e18ce1e3bcd7b2483639a8f09b309f48b2132b18

>  <std_smi>
COc1c(Cl)cc(Cl)cc1-c1cc(N)n[nH]1

>  <uuid>
6d9aac0b-8ee4-4250-b6e9-41c98e48386b

$$$$
879f3a92-071c-4b35-89fc-775dedc50617
  rDOCK(R)          3D
libRbt.so/2013.1/901 2013/11/27
 18 19  0  0  0  0  0  0  0  0999 V2000
   -1.7881   27.3773    5.8388 C   0  0  0  0  0  0
   -2.0388   26.8720    4.5237 O   0  0  0  0  0  0
   -2.2184   25.5134    4.5443 C   0  0  0  0  0  0
   -1.1168   24.6472    4.5267 C   0  0  0  0  0  0
    0.5054   25.2391    4.5543 Cl  0  0  0  0  0  0
   -1.3069   23.2652    4.4583 C   0  0  0  0  0  0
   -2.5987   22.7494    4.3856 C   0  0  0  0  0  0
   -2.8322   21.0473    4.2966 Cl  0  0  0  0  0  0
   -3.7047   23.5962    4.3752 C   0  0  0  0  0  0
   -3.5117   24.9795    4.4506 C   0  0  0  0  0  0
   -4.6922   25.8500    4.4379 C   0  0  0  0  0  0
   -6.0673   25.3077    4.2380 C   0  0  0  0  0  0
   -6.8001   26.6090    4.3171 C   0  0  0  0  0  0
   -8.1533   26.6894    4.1757 N   0  0  0  0  0  0
   -6.0089   27.6162    4.5248 N   0  0  0  0  0  0
   -4.6683   27.1370    4.5992 N   0  0  0  0  0  0
   -8.6515   26.3661    5.0001 H   0  0  0  0  0  0
   -8.5251   27.5500    3.7931 H   0  0  0  0  0  0
  1  2  1  0  0  0
  2  3  1  0  0  0
  3  4  2  0  0  0
  4  5  1  0  0  0
  4  6  1  0  0  0
  6  7  2  0  0  0
  7  8  1  0  0  0
  7  9  1  0  0  0
  9 10  2  0  0  0
 10 11  1  0  0  0
 11 12  1  0  0  0
 12 13  1  0  0  0
 13 14  1  0  0  0
 13 15  2  0  0  0
 15 16  1  0  0  0
 10  3  1  0  0  0
 16 11  2  0  0  0
 14 17  1  0  0  0
 14 18  1  0  0  0
M  END
>  <CHROM.0>
-59.88758699,179.37068507

>  <CHROM.1>
-83.49923405,175.41301193,75.32394873,-3.19597565,24.98397836,4.50894568
-0.51761251,-0.07313978,0.09537035

>  <Name>
879f3a92-071c-4b35-89fc-775dedc50617

>  <RI>
1.2662e+07

>  <Rbt.Current_Directory>
/data/work/jku/5V6S/work/40/8dba899c20c42488f2b1a17844994e

>  <Rbt.Executable>
rbdock ($Id: //depot/dev/client3/rdock/2013.1/src/exe/rbdock.cxx#4 $)

>  <Rbt.Library>
libRbt.so (2013.1, Build901 2013/11/27)

>  <Rbt.Parameter_File>
/rDock_2013.1_src/data/scripts/dock.prm

>  <Rbt.Receptor>
docking.prm

>  <SCORE>
-14.2795

>  <SCORE.INTER>
-10.8672

>  <SCORE.INTER.CONST>
1

>  <SCORE.INTER.POLAR>
-0.391195

>  <SCORE.INTER.REPUL>
0

>  <SCORE.INTER.ROT>
3

>  <SCORE.INTER.VDW>
-17.9372

>  <SCORE.INTER.norm>
-0.679202

>  <SCORE.INTRA>
-3.15695

>  <SCORE.INTRA.DIHEDRAL>
-8.43647

>  <SCORE.INTRA.DIHEDRAL.0>
13.6606

>  <SCORE.INTRA.POLAR>
0

>  <SCORE.INTRA.POLAR.0>
0

>  <SCORE.INTRA.REPUL>
0

>  <SCORE.INTRA.REPUL.0>
0

>  <SCORE.INTRA.VDW>
1.06129

>  <SCORE.INTRA.VDW.0>
-0.916777

>  <SCORE.INTRA.norm>
-0.197309

>  <SCORE.RESTR>
0.0156306

>  <SCORE.RESTR.CAVITY>
0.0156306

>  <SCORE.RESTR.norm>
0.00097691

>  <SCORE.SYSTEM>
-0.270985

>  <SCORE.SYSTEM.CONST>
0

>  <SCORE.SYSTEM.DIHEDRAL>
0.00958548

>  <SCORE.SYSTEM.VDW>
-0.275778

>  <SCORE.SYSTEM.norm>
-0.0169366

>  <SCORE.heavy>
16

>  <SCORE.norm>
-0.892471

>  <enum_code>
T

>  <enum_smi>
COc1c(Cl)cc(Cl)cc1C1=NN=C(N)C1

>  <sha256>
0220565b592d6bbf24b09234e18ce1e3bcd7b2483639a8f09b309f48b2132b18

>  <std_smi>
COc1c(Cl)cc(Cl)cc1-c1cc(N)n[nH]1

>  <uuid>
879f3a92-071c-4b35-89fc-775dedc50617

$$$$
879f3a92-071c-4b35-89fc-775dedc50617
  rDOCK(R)          3D
libRbt.so/2013.1/901 2013/11/27
 18 19  0  0  0  0  0  0  0  0999 V2000
   -3.0097   33.5313    2.8679 C   0  0  0  0  0  0
   -1.8680   32.9986    3.5463 O   0  0  0  0  0  0
   -1.8205   31.6336    3.4331 C   0  0  0  0  0  0
   -2.4916   30.8170    4.3534 C   0  0  0  0  0  0
   -3.4631   31.4804    5.6178 Cl  0  0  0  0  0  0
   -2.3674   29.4275    4.2857 C   0  0  0  0  0  0
   -1.5545   28.8544    3.3106 C   0  0  0  0  0  0
   -1.3979   27.1430    3.2305 Cl  0  0  0  0  0  0
   -0.8589   29.6512    2.4041 C   0  0  0  0  0  0
   -0.9905   31.0422    2.4699 C   0  0  0  0  0  0
   -0.2479   31.8593    1.5043 C   0  0  0  0  0  0
    0.6321   31.2465    0.4675 C   0  0  0  0  0  0
    1.0886   32.5184   -0.1729 C   0  0  0  0  0  0
    1.9634   32.5314   -1.2181 N   0  0  0  0  0  0
    0.5673   33.5709    0.3788 N   0  0  0  0  0  0
   -0.2804   33.1549    1.4468 N   0  0  0  0  0  0
    2.0170   31.6346   -1.6929 H   0  0  0  0  0  0
    1.9107   33.3193   -1.8518 H   0  0  0  0  0  0
  1  2  1  0  0  0
  2  3  1  0  0  0
  3  4  2  0  0  0
  4  5  1  0  0  0
  4  6  1  0  0  0
  6  7  2  0  0  0
  7  8  1  0  0  0
  7  9  1  0  0  0
  9 10  2  0  0  0
 10 11  1  0  0  0
 11 12  1  0  0  0
 12 13  1  0  0  0
 13 14  1  0  0  0
 13 15  2  0  0  0
 15 16  1  0  0  0
 10  3  1  0  0  0
 16 11  2  0  0  0
 14 17  1  0  0  0
 14 18  1  0  0  0
M  END
>  <CHROM.0>
-59.88758699,-179.07229744

>  <CHROM.1>
-87.37604284,-179.58118105,19.07779284,-1.22969416,31.05843261,2.67751278
0.58593044,0.86686073,-0.13822253

>  <Name>
879f3a92-071c-4b35-89fc-775dedc50617

>  <RI>
1.2662e+07

>  <Rbt.Current_Directory>
/data/work/jku/5V6S/work/40/8dba899c20c42488f2b1a17844994e

>  <Rbt.Executable>
rbdock ($Id: //depot/dev/client3/rdock/2013.1/src/exe/rbdock.cxx#4 $)

>  <Rbt.Library>
libRbt.so (2013.1, Build901 2013/11/27)

>  <Rbt.Parameter_File>
/rDock_2013.1_src/data/scripts/dock.prm

>  <Rbt.Receptor>
docking.prm

>  <SCORE>
-14.2764

>  <SCORE.INTER>
-11.0451

>  <SCORE.INTER.CONST>
1

>  <SCORE.INTER.POLAR>
-1.23558

>  <SCORE.INTER.REPUL>
0.126888

>  <SCORE.INTER.ROT>
3

>  <SCORE.INTER.VDW>
-15.8786

>  <SCORE.INTER.norm>
-0.690319

>  <SCORE.INTRA>
-2.96181

>  <SCORE.INTRA.DIHEDRAL>
-8.43922

>  <SCORE.INTRA.DIHEDRAL.0>
13.6606

>  <SCORE.INTRA.POLAR>
0

>  <SCORE.INTRA.POLAR.0>
0

>  <SCORE.INTRA.REPUL>
0

>  <SCORE.INTRA.REPUL.0>
0

>  <SCORE.INTRA.VDW>
1.2578

>  <SCORE.INTRA.VDW.0>
-0.916777

>  <SCORE.INTRA.norm>
-0.185113

>  <SCORE.RESTR>
0

>  <SCORE.RESTR.CAVITY>
0

>  <SCORE.RESTR.norm>
0

>  <SCORE.SYSTEM>
-0.269462

>  <SCORE.SYSTEM.CONST>
0

>  <SCORE.SYSTEM.DIHEDRAL>
0.0118775

>  <SCORE.SYSTEM.VDW>
-0.275401

>  <SCORE.SYSTEM.norm>
-0.0168414

>  <SCORE.heavy>
16

>  <SCORE.norm>
-0.892273

>  <enum_code>
T

>  <enum_smi>
COc1c(Cl)cc(Cl)cc1C1=NN=C(N)C1

>  <sha256>
0220565b592d6bbf24b09234e18ce1e3bcd7b2483639a8f09b309f48b2132b18

>  <std_smi>
COc1c(Cl)cc(Cl)cc1-c1cc(N)n[nH]1

>  <uuid>
879f3a92-071c-4b35-89fc-775dedc50617

$$$$
879f3a92-071c-4b35-89fc-775dedc50617
  rDOCK(R)          3D
libRbt.so/2013.1/901 2013/11/27
 18 19  0  0  0  0  0  0  0  0999 V2000
   -3.2717   31.8054    4.5158 C   0  0  0  0  0  0
   -3.6983   30.9159    3.4792 O   0  0  0  0  0  0
   -2.9612   29.7604    3.4877 C   0  0  0  0  0  0
   -3.2980   28.7051    4.3462 C   0  0  0  0  0  0
   -4.6864   28.7746    5.3709 Cl  0  0  0  0  0  0
   -2.4922   27.5663    4.4143 C   0  0  0  0  0  0
   -1.3370   27.4915    3.6398 C   0  0  0  0  0  0
   -0.3421   26.0907    3.7276 Cl  0  0  0  0  0  0
   -0.9722   28.5419    2.8007 C   0  0  0  0  0  0
   -1.7846   29.6782    2.7293 C   0  0  0  0  0  0
   -1.3790   30.7705    1.8383 C   0  0  0  0  0  0
   -0.1286   30.7016    1.0280 C   0  0  0  0  0  0
   -0.2550   32.0367    0.3662 C   0  0  0  0  0  0
    0.6798   32.5043   -0.5086 N   0  0  0  0  0  0
   -1.3283   32.6721    0.7239 N   0  0  0  0  0  0
   -2.0431   31.8708    1.6616 N   0  0  0  0  0  0
    0.7281   31.9518   -1.3600 H   0  0  0  0  0  0
    0.6938   33.5028   -0.6760 H   0  0  0  0  0  0
  1  2  1  0  0  0
  2  3  1  0  0  0
  3  4  2  0  0  0
  4  5  1  0  0  0
  4  6  1  0  0  0
  6  7  2  0  0  0
  7  8  1  0  0  0
  7  9  1  0  0  0
  9 10  2  0  0  0
 10 11  1  0  0  0
 11 12  1  0  0  0
 12 13  1  0  0  0
 13 14  1  0  0  0
 13 15  2  0  0  0
 15 16  1  0  0  0
 10  3  1  0  0  0
 16 11  2  0  0  0
 14 17  1  0  0  0
 14 18  1  0  0  0
M  END
>  <CHROM.0>
-59.88758699,69.25767029

>  <CHROM.1>
83.78165148,179.79313874,65.59421112,-1.94533867,29.62972747,3.00566890,1.11104345
0.62026228,-0.47299157

>  <Name>
879f3a92-071c-4b35-89fc-775dedc50617

>  <RI>
1.2662e+07

>  <Rbt.Current_Directory>
/data/work/jku/5V6S/work/40/8dba899c20c42488f2b1a17844994e

>  <Rbt.Executable>
rbdock ($Id: //depot/dev/client3/rdock/2013.1/src/exe/rbdock.cxx#4 $)

>  <Rbt.Library>
libRbt.so (2013.1, Build901 2013/11/27)

>  <Rbt.Parameter_File>
/rDock_2013.1_src/data/scripts/dock.prm

>  <Rbt.Receptor>
docking.prm

>  <SCORE>
-14.8046

>  <SCORE.INTER>
-10.3043

>  <SCORE.INTER.CONST>
1

>  <SCORE.INTER.POLAR>
-1.08972

>  <SCORE.INTER.REPUL>
0

>  <SCORE.INTER.ROT>
3

>  <SCORE.INTER.VDW>
-14.9993

>  <SCORE.INTER.norm>
-0.644021

>  <SCORE.INTRA>
-2.98714

>  <SCORE.INTRA.DIHEDRAL>
-8.40941

>  <SCORE.INTRA.DIHEDRAL.0>
13.6606

>  <SCORE.INTRA.POLAR>
0

>  <SCORE.INTRA.POLAR.0>
0

>  <SCORE.INTRA.REPUL>
0

>  <SCORE.INTRA.REPUL.0>
0

>  <SCORE.INTRA.VDW>
1.21757

>  <SCORE.INTRA.VDW.0>
-0.916777

>  <SCORE.INTRA.norm>
-0.186696

>  <SCORE.RESTR>
0

>  <SCORE.RESTR.CAVITY>
0

>  <SCORE.RESTR.norm>
0

>  <SCORE.SYSTEM>
-1.5131

>  <SCORE.SYSTEM.CONST>
0

>  <SCORE.SYSTEM.DIHEDRAL>
0.422349

>  <SCORE.SYSTEM.POLAR>
-0.503117

>  <SCORE.SYSTEM.VDW>
-0.0136765

>  <SCORE.SYSTEM.norm>
-0.0945686

>  <SCORE.heavy>
16

>  <SCORE.norm>
-0.925286

>  <enum_code>
T

>  <enum_smi>
COc1c(Cl)cc(Cl)cc1C1=NN=C(N)C1

>  <sha256>
0220565b592d6bbf24b09234e18ce1e3bcd7b2483639a8f09b309f48b2132b18

>  <std_smi>
COc1c(Cl)cc(Cl)cc1-c1cc(N)n[nH]1

>  <uuid>
879f3a92-071c-4b35-89fc-775dedc50617

$$$$
879f3a92-071c-4b35-89fc-775dedc50617
  rDOCK(R)          3D
libRbt.so/2013.1/901 2013/11/27
 18 19  0  0  0  0  0  0  0  0999 V2000
   -2.1760   27.2573    5.7444 C   0  0  0  0  0  0
   -2.7531   26.1340    6.4172 O   0  0  0  0  0  0
   -2.6905   25.0081    5.6382 C   0  0  0  0  0  0
   -1.5349   24.2153    5.6207 C   0  0  0  0  0  0
   -0.1747   24.5690    6.6245 Cl  0  0  0  0  0  0
   -1.4437   23.1198    4.7591 C   0  0  0  0  0  0
   -2.4997   22.8292    3.8987 C   0  0  0  0  0  0
   -2.3850   21.4826    2.8341 Cl  0  0  0  0  0  0
   -3.6452   23.6217    3.8832 C   0  0  0  0  0  0
   -3.7367   24.7142    4.7520 C   0  0  0  0  0  0
   -4.9530   25.5331    4.7167 C   0  0  0  0  0  0
   -6.0191   25.3148    3.6965 C   0  0  0  0  0  0
   -6.9442   26.3984    4.1508 C   0  0  0  0  0  0
   -8.1248   26.6562    3.5202 N   0  0  0  0  0  0
   -6.4915   27.0421    5.1825 N   0  0  0  0  0  0
   -5.2248   26.4960    5.5425 N   0  0  0  0  0  0
   -8.2569   27.6453    3.3289 H   0  0  0  0  0  0
   -8.3686   26.0596    2.7393 H   0  0  0  0  0  0
  1  2  1  0  0  0
  2  3  1  0  0  0
  3  4  2  0  0  0
  4  5  1  0  0  0
  4  6  1  0  0  0
  6  7  2  0  0  0
  7  8  1  0  0  0
  7  9  1  0  0  0
  9 10  2  0  0  0
 10 11  1  0  0  0
 11 12  1  0  0  0
 12 13  1  0  0  0
 13 14  1  0  0  0
 13 15  2  0  0  0
 15 16  1  0  0  0
 10  3  1  0  0  0
 16 11  2  0  0  0
 14 17  1  0  0  0
 14 18  1  0  0  0
M  END
>  <CHROM.0>
-59.88758699,68.67866325

>  <CHROM.1>
84.47683213,174.16399342,-132.11532828,-3.41492454,24.74797234,4.80429717
-2.79792652,0.41103163,-2.51564411

>  <Name>
879f3a92-071c-4b35-89fc-775dedc50617

>  <RI>
1.2662e+07

>  <Rbt.Current_Directory>
/data/work/jku/5V6S/work/40/8dba899c20c42488f2b1a17844994e

>  <Rbt.Executable>
rbdock ($Id: //depot/dev/client3/rdock/2013.1/src/exe/rbdock.cxx#4 $)

>  <Rbt.Library>
libRbt.so (2013.1, Build901 2013/11/27)

>  <Rbt.Parameter_File>
/rDock_2013.1_src/data/scripts/dock.prm

>  <Rbt.Receptor>
docking.prm

>  <SCORE>
-18.2958

>  <SCORE.INTER>
-13.9365

>  <SCORE.INTER.CONST>
1

>  <SCORE.INTER.POLAR>
-1.02754

>  <SCORE.INTER.REPUL>
0

>  <SCORE.INTER.ROT>
3

>  <SCORE.INTER.VDW>
-18.8429

>  <SCORE.INTER.norm>
-0.871031

>  <SCORE.INTRA>
-2.86905

>  <SCORE.INTRA.DIHEDRAL>
-8.25525

>  <SCORE.INTRA.DIHEDRAL.0>
13.6606

>  <SCORE.INTRA.POLAR>
0

>  <SCORE.INTRA.POLAR.0>
0

>  <SCORE.INTRA.REPUL>
0

>  <SCORE.INTRA.REPUL.0>
0

>  <SCORE.INTRA.VDW>
1.25858

>  <SCORE.INTRA.VDW.0>
-0.916777

>  <SCORE.INTRA.norm>
-0.179315

>  <SCORE.RESTR>
0.0231866

>  <SCORE.RESTR.CAVITY>
0.0231866

>  <SCORE.RESTR.norm>
0.00144917

>  <SCORE.SYSTEM>
-1.51342

>  <SCORE.SYSTEM.CONST>
0

>  <SCORE.SYSTEM.DIHEDRAL>
0.372965

>  <SCORE.SYSTEM.POLAR>
-0.502748

>  <SCORE.SYSTEM.VDW>
0.00944393

>  <SCORE.SYSTEM.norm>
-0.0945885

>  <SCORE.heavy>
16

>  <SCORE.norm>
-1.14349

>  <enum_code>
T

>  <enum_smi>
COc1c(Cl)cc(Cl)cc1C1=NN=C(N)C1

>  <sha256>
0220565b592d6bbf24b09234e18ce1e3bcd7b2483639a8f09b309f48b2132b18

>  <std_smi>
COc1c(Cl)cc(Cl)cc1-c1cc(N)n[nH]1

>  <uuid>
879f3a92-071c-4b35-89fc-775dedc50617

$$$$
879f3a92-071c-4b35-89fc-775dedc50617
  rDOCK(R)          3D
libRbt.so/2013.1/901 2013/11/27
 18 19  0  0  0  0  0  0  0  0999 V2000
   -2.2014   28.2119    5.0767 C   0  0  0  0  0  0
   -2.9571   27.4596    6.0309 O   0  0  0  0  0  0
   -4.1409   27.0282    5.4916 C   0  0  0  0  0  0
   -5.2804   27.8434    5.5265 C   0  0  0  0  0  0
   -5.2339   29.4434    6.1747 Cl  0  0  0  0  0  0
   -6.5051   27.3647    5.0555 C   0  0  0  0  0  0
   -6.5958   26.0627    4.5692 C   0  0  0  0  0  0
   -8.1055   25.4718    3.9936 Cl  0  0  0  0  0  0
   -5.4798   25.2291    4.5515 C   0  0  0  0  0  0
   -4.2531   25.7133    5.0174 C   0  0  0  0  0  0
   -3.0930   24.8163    4.9883 C   0  0  0  0  0  0
   -3.1795   23.4362    4.4291 C   0  0  0  0  0  0
   -1.7574   23.0417    4.6708 C   0  0  0  0  0  0
   -1.2809   21.8076    4.3425 N   0  0  0  0  0  0
   -1.0619   23.9901    5.2190 N   0  0  0  0  0  0
   -1.9090   25.1182    5.4244 N   0  0  0  0  0  0
   -1.8240   21.3625    3.6080 H   0  0  0  0  0  0
   -0.2806   21.7211    4.2115 H   0  0  0  0  0  0
  1  2  1  0  0  0
  2  3  1  0  0  0
  3  4  2  0  0  0
  4  5  1  0  0  0
  4  6  1  0  0  0
  6  7  2  0  0  0
  7  8  1  0  0  0
  7  9  1  0  0  0
  9 10  2  0  0  0
 10 11  1  0  0  0
 11 12  1  0  0  0
 12 13  1  0  0  0
 13 14  1  0  0  0
 13 15  2  0  0  0
 15 16  1  0  0  0
 10  3  1  0  0  0
 16 11  2  0  0  0
 14 17  1  0  0  0
 14 18  1  0  0  0
M  END
>  <CHROM.0>
-59.88758699,70.00645450

>  <CHROM.1>
-86.93885839,-177.12279834,24.03899484,-4.32904269,26.02158018,5.04364136
-0.74108089,-0.18778758,0.30860490

>  <Name>
879f3a92-071c-4b35-89fc-775dedc50617

>  <RI>
1.2662e+07

>  <Rbt.Current_Directory>
/data/work/jku/5V6S/work/40/8dba899c20c42488f2b1a17844994e

>  <Rbt.Executable>
rbdock ($Id: //depot/dev/client3/rdock/2013.1/src/exe/rbdock.cxx#4 $)

>  <Rbt.Library>
libRbt.so (2013.1, Build901 2013/11/27)

>  <Rbt.Parameter_File>
/rDock_2013.1_src/data/scripts/dock.prm

>  <Rbt.Receptor>
docking.prm

>  <SCORE>
-13.666

>  <SCORE.INTER>
-9.16039

>  <SCORE.INTER.CONST>
1

>  <SCORE.INTER.POLAR>
-0.262138

>  <SCORE.INTER.REPUL>
0

>  <SCORE.INTER.ROT>
3

>  <SCORE.INTER.VDW>
-16.6691

>  <SCORE.INTER.norm>
-0.572524

>  <SCORE.INTRA>
-2.99752

>  <SCORE.INTRA.DIHEDRAL>
-8.42184

>  <SCORE.INTRA.DIHEDRAL.0>
13.6606

>  <SCORE.INTRA.POLAR>
0

>  <SCORE.INTRA.POLAR.0>
0

>  <SCORE.INTRA.REPUL>
0

>  <SCORE.INTRA.REPUL.0>
0

>  <SCORE.INTRA.VDW>
1.2134

>  <SCORE.INTRA.VDW.0>
-0.916777

>  <SCORE.INTRA.norm>
-0.187345

>  <SCORE.RESTR>
0

>  <SCORE.RESTR.CAVITY>
0

>  <SCORE.RESTR.norm>
0

>  <SCORE.SYSTEM>
-1.50804

>  <SCORE.SYSTEM.CONST>
0

>  <SCORE.SYSTEM.DIHEDRAL>
0.490548

>  <SCORE.SYSTEM.POLAR>
-0.503195

>  <SCORE.SYSTEM.VDW>
-0.0424552

>  <SCORE.SYSTEM.norm>
-0.0942527

>  <SCORE.heavy>
16

>  <SCORE.norm>
-0.854122

>  <enum_code>
T

>  <enum_smi>
COc1c(Cl)cc(Cl)cc1C1=NN=C(N)C1

>  <sha256>
0220565b592d6bbf24b09234e18ce1e3bcd7b2483639a8f09b309f48b2132b18

>  <std_smi>
COc1c(Cl)cc(Cl)cc1-c1cc(N)n[nH]1

>  <uuid>
879f3a92-071c-4b35-89fc-775dedc50617

$$$$
e122dae0-2099-4fc2-bbd3-8b45e0221088
  rDOCK(R)          3D
libRbt.so/2013.1/901 2013/11/27
 18 19  0  0  0  0  0  0  0  0999 V2000
   -2.0516   27.3239    5.7770 C   0  0  0  0  0  0
   -2.6490   26.2460    6.5072 O   0  0  0  0  0  0
   -2.7585   25.1301    5.7187 C   0  0  0  0  0  0
   -1.6832   24.2272    5.6359 C   0  0  0  0  0  0
   -0.1953   24.5080    6.4710 Cl  0  0  0  0  0  0
   -1.7794   23.0753    4.8552 C   0  0  0  0  0  0
   -2.9447   22.8312    4.1385 C   0  0  0  0  0  0
   -3.0712   21.4103    3.1772 Cl  0  0  0  0  0  0
   -4.0027   23.7368    4.1768 C   0  0  0  0  0  0
   -3.9112   24.9057    4.9510 C   0  0  0  0  0  0
   -5.0547   25.8483    4.8746 C   0  0  0  0  0  0
   -6.2924   25.6010    4.0216 C   0  0  0  0  0  0
   -7.1086   26.7947    4.4303 C   0  0  0  0  0  0
   -8.2988   27.0177    4.0070 N   0  0  0  0  0  0
   -6.3271   27.5137    5.2866 N   0  0  0  0  0  0
   -5.1147   26.9516    5.5780 N   0  0  0  0  0  0
   -8.6527   27.8858    4.4172 H   0  0  0  0  0  0
   -6.6470   28.3465    5.7685 H   0  0  0  0  0  0
  1  2  1  0  0  0
  2  3  1  0  0  0
  3  4  2  0  0  0
  4  5  1  0  0  0
  4  6  1  0  0  0
  6  7  2  0  0  0
  7  8  1  0  0  0
  7  9  1  0  0  0
  9 10  2  0  0  0
 10 11  1  0  0  0
 11 12  1  0  0  0
 12 13  1  0  0  0
 13 14  2  0  0  0
 13 15  1  0  0  0
 15 16  1  0  0  0
 10  3  1  0  0  0
 16 11  2  0  0  0
 14 17  1  0  0  0
 15 18  1  0  0  0
M  END
>  <CHROM.0>
-59.88758699,68.02941733

>  <CHROM.1>
87.13977254,179.12451148,-3.58878391,24.88774571,4.97044866,-2.66263371,0.37986974
-2.64473702

>  <Name>
e122dae0-2099-4fc2-bbd3-8b45e0221088

>  <RI>
1.70448e+07

>  <Rbt.Current_Directory>
/data/work/jku/5V6S/work/40/8dba899c20c42488f2b1a17844994e

>  <Rbt.Executable>
rbdock ($Id: //depot/dev/client3/rdock/2013.1/src/exe/rbdock.cxx#4 $)

>  <Rbt.Library>
libRbt.so (2013.1, Build901 2013/11/27)

>  <Rbt.Parameter_File>
/rDock_2013.1_src/data/scripts/dock.prm

>  <Rbt.Receptor>
docking.prm

>  <SCORE>
-13.2254

>  <SCORE.INTER>
-11.3229

>  <SCORE.INTER.CONST>
1

>  <SCORE.INTER.POLAR>
0

>  <SCORE.INTER.REPUL>
0

>  <SCORE.INTER.ROT>
2

>  <SCORE.INTER.VDW>
-18.7229

>  <SCORE.INTER.norm>
-0.70768

>  <SCORE.INTRA>
-0.392547

>  <SCORE.INTRA.DIHEDRAL>
-1.06132

>  <SCORE.INTRA.DIHEDRAL.0>
5.87354

>  <SCORE.INTRA.POLAR>
0

>  <SCORE.INTRA.POLAR.0>
0

>  <SCORE.INTRA.REPUL>
0

>  <SCORE.INTRA.REPUL.0>
0

>  <SCORE.INTRA.VDW>
0.138112

>  <SCORE.INTRA.VDW.0>
-0.0514597

>  <SCORE.INTRA.norm>
-0.0245342

>  <SCORE.RESTR>
0

>  <SCORE.RESTR.CAVITY>
0

>  <SCORE.RESTR.norm>
0

>  <SCORE.SYSTEM>
-1.50997

>  <SCORE.SYSTEM.CONST>
0

>  <SCORE.SYSTEM.DIHEDRAL>
0.321127

>  <SCORE.SYSTEM.POLAR>
-0.502009

>  <SCORE.SYSTEM.VDW>
0.0362916

>  <SCORE.SYSTEM.norm>
-0.0943734

>  <SCORE.heavy>
16

>  <SCORE.norm>
-0.826587

>  <enum_code>
T

>  <enum_smi>
COc1c(Cl)cc(Cl)cc1C1=NNC(=N)C1

>  <sha256>
0220565b592d6bbf24b09234e18ce1e3bcd7b2483639a8f09b309f48b2132b18

>  <std_smi>
COc1c(Cl)cc(Cl)cc1-c1cc(N)n[nH]1

>  <uuid>
e122dae0-2099-4fc2-bbd3-8b45e0221088

$$$$
e122dae0-2099-4fc2-bbd3-8b45e0221088
  rDOCK(R)          3D
libRbt.so/2013.1/901 2013/11/27
 18 19  0  0  0  0  0  0  0  0999 V2000
   -1.8731   26.9992    6.2965 C   0  0  0  0  0  0
   -2.2141   27.2380    4.9259 O   0  0  0  0  0  0
   -3.5745   27.2297    4.7577 C   0  0  0  0  0  0
   -4.2399   26.0134    4.5207 C   0  0  0  0  0  0
   -3.3805   24.5189    4.3884 Cl  0  0  0  0  0  0
   -5.6257   25.9787    4.3658 C   0  0  0  0  0  0
   -6.3501   27.1630    4.4281 C   0  0  0  0  0  0
   -8.0598   27.1263    4.2422 Cl  0  0  0  0  0  0
   -5.7013   28.3808    4.6203 C   0  0  0  0  0  0
   -4.3045   28.4279    4.7658 C   0  0  0  0  0  0
   -3.6914   29.7732    4.8925 C   0  0  0  0  0  0
   -2.2267   30.0613    4.5888 C   0  0  0  0  0  0
   -2.2300   31.5517    4.7798 C   0  0  0  0  0  0
   -1.2019   32.2935    4.5841 N   0  0  0  0  0  0
   -3.4919   31.8802    5.1806 N   0  0  0  0  0  0
   -4.3762   30.8378    5.2288 N   0  0  0  0  0  0
   -1.4402   33.2696    4.7778 H   0  0  0  0  0  0
   -3.8002   32.8349    5.3276 H   0  0  0  0  0  0
  1  2  1  0  0  0
  2  3  1  0  0  0
  3  4  2  0  0  0
  4  5  1  0  0  0
  4  6  1  0  0  0
  6  7  2  0  0  0
  7  8  1  0  0  0
  7  9  1  0  0  0
  9 10  2  0  0  0
 10 11  1  0  0  0
 11 12  1  0  0  0
 12 13  1  0  0  0
 13 14  2  0  0  0
 13 15  1  0  0  0
 15 16  1  0  0  0
 10  3  1  0  0  0
 16 11  2  0  0  0
 14 17  1  0  0  0
 15 18  1  0  0  0
M  END
>  <CHROM.0>
-59.88758699,69.03755640

>  <CHROM.1>
-86.82496536,20.16000285,-4.15776553,28.06306752,4.72305474,-1.02899932,0.11672077
-3.11141378

>  <Name>
e122dae0-2099-4fc2-bbd3-8b45e0221088

>  <RI>
1.70448e+07

>  <Rbt.Current_Directory>
/data/work/jku/5V6S/work/40/8dba899c20c42488f2b1a17844994e

>  <Rbt.Executable>
rbdock ($Id: //depot/dev/client3/rdock/2013.1/src/exe/rbdock.cxx#4 $)

>  <Rbt.Library>
libRbt.so (2013.1, Build901 2013/11/27)

>  <Rbt.Parameter_File>
/rDock_2013.1_src/data/scripts/dock.prm

>  <Rbt.Receptor>
docking.prm

>  <SCORE>
-13.3663

>  <SCORE.INTER>
-11.9221

>  <SCORE.INTER.CONST>
1

>  <SCORE.INTER.POLAR>
-1.28149

>  <SCORE.INTER.REPUL>
0

>  <SCORE.INTER.ROT>
2

>  <SCORE.INTER.VDW>
-14.965

>  <SCORE.INTER.norm>
-0.745129

>  <SCORE.INTRA>
0.0693071

>  <SCORE.INTRA.DIHEDRAL>
0.323029

>  <SCORE.INTRA.DIHEDRAL.0>
5.87354

>  <SCORE.INTRA.POLAR>
0

>  <SCORE.INTRA.POLAR.0>
0

>  <SCORE.INTRA.REPUL>
0

>  <SCORE.INTRA.REPUL.0>
0

>  <SCORE.INTRA.VDW>
-0.0922075

>  <SCORE.INTRA.VDW.0>
-0.0514597

>  <SCORE.INTRA.norm>
0.00433169

>  <SCORE.RESTR>
0

>  <SCORE.RESTR.CAVITY>
0

>  <SCORE.RESTR.norm>
0

>  <SCORE.SYSTEM>
-1.51359

>  <SCORE.SYSTEM.CONST>
0

>  <SCORE.SYSTEM.DIHEDRAL>
0.403228

>  <SCORE.SYSTEM.POLAR>
-0.503008

>  <SCORE.SYSTEM.VDW>
-0.00497732

>  <SCORE.SYSTEM.norm>
-0.0945995

>  <SCORE.heavy>
16

>  <SCORE.norm>
-0.835397

>  <enum_code>
T

>  <enum_smi>
COc1c(Cl)cc(Cl)cc1C1=NNC(=N)C1

>  <sha256>
0220565b592d6bbf24b09234e18ce1e3bcd7b2483639a8f09b309f48b2132b18

>  <std_smi>
COc1c(Cl)cc(Cl)cc1-c1cc(N)n[nH]1

>  <uuid>
e122dae0-2099-4fc2-bbd3-8b45e0221088

$$$$
e122dae0-2099-4fc2-bbd3-8b45e0221088
  rDOCK(R)          3D
libRbt.so/2013.1/901 2013/11/27
 18 19  0  0  0  0  0  0  0  0999 V2000
   -3.0549   29.6098    5.5502 C   0  0  0  0  0  0
   -1.6464   29.5606    5.2942 O   0  0  0  0  0  0
   -1.4001   29.0670    4.0393 C   0  0  0  0  0  0
   -1.0532   27.7134    3.8787 C   0  0  0  0  0  0
   -0.8817   26.6530    5.2336 Cl  0  0  0  0  0  0
   -0.8170   27.1849    2.6096 C   0  0  0  0  0  0
   -0.9081   28.0126    1.4971 C   0  0  0  0  0  0
   -0.6223   27.3659   -0.0711 Cl  0  0  0  0  0  0
   -1.2095   29.3650    1.6431 C   0  0  0  0  0  0
   -1.4376   29.9096    2.9180 C   0  0  0  0  0  0
   -1.6792   31.3721    2.9859 C   0  0  0  0  0  0
   -2.2487   32.1845    1.8299 C   0  0  0  0  0  0
   -2.3660   33.5197    2.5091 C   0  0  0  0  0  0
   -2.8585   34.5611    1.9446 N   0  0  0  0  0  0
   -1.8579   33.3532    3.7641 N   0  0  0  0  0  0
   -1.4685   32.0779    4.0690 N   0  0  0  0  0  0
   -2.8340   35.3496    2.5962 H   0  0  0  0  0  0
   -1.8638   34.0811    4.4699 H   0  0  0  0  0  0
  1  2  1  0  0  0
  2  3  1  0  0  0
  3  4  2  0  0  0
  4  5  1  0  0  0
  4  6  1  0  0  0
  6  7  2  0  0  0
  7  8  1  0  0  0
  7  9  1  0  0  0
  9 10  2  0  0  0
 10 11  1  0  0  0
 11 12  1  0  0  0
 12 13  1  0  0  0
 13 14  2  0  0  0
 13 15  1  0  0  0
 15 16  1  0  0  0
 10  3  1  0  0  0
 16 11  2  0  0  0
 14 17  1  0  0  0
 15 18  1  0  0  0
M  END
>  <CHROM.0>
-59.88758699,69.29875135

>  <CHROM.1>
-98.57827615,-155.29923554,-1.47657065,29.63338588,3.06236937,2.65872262
1.31072626,-1.08469467

>  <Name>
e122dae0-2099-4fc2-bbd3-8b45e0221088

>  <RI>
1.70448e+07

>  <Rbt.Current_Directory>
/data/work/jku/5V6S/work/40/8dba899c20c42488f2b1a17844994e

>  <Rbt.Executable>
rbdock ($Id: //depot/dev/client3/rdock/2013.1/src/exe/rbdock.cxx#4 $)

>  <Rbt.Library>
libRbt.so (2013.1, Build901 2013/11/27)

>  <Rbt.Parameter_File>
/rDock_2013.1_src/data/scripts/dock.prm

>  <Rbt.Receptor>
docking.prm

>  <SCORE>
5.24314

>  <SCORE.INTER>
6.69458

>  <SCORE.INTER.CONST>
1

>  <SCORE.INTER.POLAR>
-1.27831

>  <SCORE.INTER.REPUL>
0

>  <SCORE.INTER.ROT>
2

>  <SCORE.INTER.VDW>
3.64082

>  <SCORE.INTER.norm>
0.418411

>  <SCORE.INTRA>
0.0615107

>  <SCORE.INTRA.DIHEDRAL>
0.971016

>  <SCORE.INTRA.DIHEDRAL.0>
5.87354

>  <SCORE.INTRA.POLAR>
0

>  <SCORE.INTRA.POLAR.0>
0

>  <SCORE.INTRA.REPUL>
0

>  <SCORE.INTRA.REPUL.0>
0

>  <SCORE.INTRA.VDW>
-0.423997

>  <SCORE.INTRA.VDW.0>
-0.0514597

>  <SCORE.INTRA.norm>
0.00384442

>  <SCORE.RESTR>
0

>  <SCORE.RESTR.CAVITY>
0

>  <SCORE.RESTR.norm>
0

>  <SCORE.SYSTEM>
-1.51296

>  <SCORE.SYSTEM.CONST>
0

>  <SCORE.SYSTEM.DIHEDRAL>
0.425965

>  <SCORE.SYSTEM.POLAR>
-0.503133

>  <SCORE.SYSTEM.VDW>
-0.0152879

>  <SCORE.SYSTEM.norm>
-0.0945598

>  <SCORE.heavy>
16

>  <SCORE.norm>
0.327696

>  <enum_code>
T

>  <enum_smi>
COc1c(Cl)cc(Cl)cc1C1=NNC(=N)C1

>  <sha256>
0220565b592d6bbf24b09234e18ce1e3bcd7b2483639a8f09b309f48b2132b18

>  <std_smi>
COc1c(Cl)cc(Cl)cc1-c1cc(N)n[nH]1

>  <uuid>
e122dae0-2099-4fc2-bbd3-8b45e0221088

$$$$
e122dae0-2099-4fc2-bbd3-8b45e0221088
  rDOCK(R)          3D
libRbt.so/2013.1/901 2013/11/27
 18 19  0  0  0  0  0  0  0  0999 V2000
   -5.9740   23.2674    2.8877 C   0  0  0  0  0  0
   -5.4347   23.0353    4.1943 O   0  0  0  0  0  0
   -4.0829   23.2625    4.2067 C   0  0  0  0  0  0
   -3.1975   22.2156    3.8929 C   0  0  0  0  0  0
   -3.7658   20.6228    3.5328 Cl  0  0  0  0  0  0
   -1.8191   22.4288    3.8804 C   0  0  0  0  0  0
   -1.3192   23.6854    4.2004 C   0  0  0  0  0  0
    0.3794   23.9559    4.1825 Cl  0  0  0  0  0  0
   -2.1809   24.7214    4.5542 C   0  0  0  0  0  0
   -3.5702   24.5137    4.5811 C   0  0  0  0  0  0
   -4.4065   25.6503    5.0400 C   0  0  0  0  0  0
   -3.8397   27.0143    5.4125 C   0  0  0  0  0  0
   -5.1259   27.7461    5.6737 C   0  0  0  0  0  0
   -5.1832   28.9896    5.9836 N   0  0  0  0  0  0
   -6.1234   26.8296    5.5133 N   0  0  0  0  0  0
   -5.7128   25.5875    5.1138 N   0  0  0  0  0  0
   -6.1595   29.2665    6.1152 H   0  0  0  0  0  0
   -7.1088   27.0611    5.5714 H   0  0  0  0  0  0
  1  2  1  0  0  0
  2  3  1  0  0  0
  3  4  2  0  0  0
  4  5  1  0  0  0
  4  6  1  0  0  0
  6  7  2  0  0  0
  7  8  1  0  0  0
  7  9  1  0  0  0
  9 10  2  0  0  0
 10 11  1  0  0  0
 11 12  1  0  0  0
 12 13  1  0  0  0
 13 14  2  0  0  0
 13 15  1  0  0  0
 15 16  1  0  0  0
 10  3  1  0  0  0
 16 11  2  0  0  0
 14 17  1  0  0  0
 15 18  1  0  0  0
M  END
>  <CHROM.0>
-59.88758699,68.82899334

>  <CHROM.1>
-88.55027001,-178.51194022,-3.54578174,24.23456340,4.43871656,1.05186081
-0.00349738,-2.82161390

>  <Name>
e122dae0-2099-4fc2-bbd3-8b45e0221088

>  <RI>
1.70448e+07

>  <Rbt.Current_Directory>
/data/work/jku/5V6S/work/40/8dba899c20c42488f2b1a17844994e

>  <Rbt.Executable>
rbdock ($Id: //depot/dev/client3/rdock/2013.1/src/exe/rbdock.cxx#4 $)

>  <Rbt.Library>
libRbt.so (2013.1, Build901 2013/11/27)

>  <Rbt.Parameter_File>
/rDock_2013.1_src/data/scripts/dock.prm

>  <Rbt.Receptor>
docking.prm

>  <SCORE>
-11.7028

>  <SCORE.INTER>
-9.56425

>  <SCORE.INTER.CONST>
1

>  <SCORE.INTER.POLAR>
0

>  <SCORE.INTER.REPUL>
0

>  <SCORE.INTER.ROT>
2

>  <SCORE.INTER.VDW>
-16.9642

>  <SCORE.INTER.norm>
-0.597765

>  <SCORE.INTRA>
-0.624906

>  <SCORE.INTRA.DIHEDRAL>
-1.07579

>  <SCORE.INTRA.DIHEDRAL.0>
5.87354

>  <SCORE.INTRA.POLAR>
0

>  <SCORE.INTRA.POLAR.0>
0

>  <SCORE.INTRA.REPUL>
0

>  <SCORE.INTRA.REPUL.0>
0

>  <SCORE.INTRA.VDW>
-0.0870094

>  <SCORE.INTRA.VDW.0>
-0.0514597

>  <SCORE.INTRA.norm>
-0.0390566

>  <SCORE.RESTR>
0

>  <SCORE.RESTR.CAVITY>
0

>  <SCORE.RESTR.norm>
0

>  <SCORE.SYSTEM>
-1.51364

>  <SCORE.SYSTEM.CONST>
0

>  <SCORE.SYSTEM.DIHEDRAL>
0.385503

>  <SCORE.SYSTEM.POLAR>
-0.50287

>  <SCORE.SYSTEM.VDW>
0.00336728

>  <SCORE.SYSTEM.norm>
-0.0946024

>  <SCORE.heavy>
16

>  <SCORE.norm>
-0.731424

>  <enum_code>
T

>  <enum_smi>
COc1c(Cl)cc(Cl)cc1C1=NNC(=N)C1

>  <sha256>
0220565b592d6bbf24b09234e18ce1e3bcd7b2483639a8f09b309f48b2132b18

>  <std_smi>
COc1c(Cl)cc(Cl)cc1-c1cc(N)n[nH]1

>  <uuid>
e122dae0-2099-4fc2-bbd3-8b45e0221088

$$$$
e122dae0-2099-4fc2-bbd3-8b45e0221088
  rDOCK(R)          3D
libRbt.so/2013.1/901 2013/11/27
 18 19  0  0  0  0  0  0  0  0999 V2000
    0.0522   25.3777    4.2320 C   0  0  0  0  0  0
   -0.7603   24.6683    5.1746 O   0  0  0  0  0  0
   -2.0634   25.0876    5.1016 C   0  0  0  0  0  0
   -2.4576   26.2577    5.7753 C   0  0  0  0  0  0
   -1.3480   27.1678    6.7398 Cl  0  0  0  0  0  0
   -3.7737   26.7137    5.6993 C   0  0  0  0  0  0
   -4.7058   25.9908    4.9647 C   0  0  0  0  0  0
   -6.3293   26.5502    4.8635 Cl  0  0  0  0  0  0
   -4.3410   24.8074    4.3263 C   0  0  0  0  0  0
   -3.0207   24.3334    4.4064 C   0  0  0  0  0  0
   -2.7393   23.0286    3.7583 C   0  0  0  0  0  0
   -1.3911   22.3238    3.8382 C   0  0  0  0  0  0
   -1.7414   21.0521    3.1184 C   0  0  0  0  0  0
   -0.9219   20.0777    2.9620 N   0  0  0  0  0  0
   -3.0356   21.1911    2.7105 N   0  0  0  0  0  0
   -3.6480   22.3491    3.1039 N   0  0  0  0  0  0
   -1.3791   19.3238    2.4425 H   0  0  0  0  0  0
   -3.5569   20.4552    2.2469 H   0  0  0  0  0  0
  1  2  1  0  0  0
  2  3  1  0  0  0
  3  4  2  0  0  0
  4  5  1  0  0  0
  4  6  1  0  0  0
  6  7  2  0  0  0
  7  8  1  0  0  0
  7  9  1  0  0  0
  9 10  2  0  0  0
 10 11  1  0  0  0
 11 12  1  0  0  0
 12 13  1  0  0  0
 13 14  2  0  0  0
 13 15  1  0  0  0
 15 16  1  0  0  0
 10  3  1  0  0  0
 16 11  2  0  0  0
 14 17  1  0  0  0
 15 18  1  0  0  0
M  END
>  <CHROM.0>
-59.88758699,68.34810888

>  <CHROM.1>
-82.04395925,3.33483346,-2.79398247,24.58804886,4.63219087,-1.25029848,-0.18271175
0.49980636

>  <Name>
e122dae0-2099-4fc2-bbd3-8b45e0221088

>  <RI>
1.70448e+07

>  <Rbt.Current_Directory>
/data/work/jku/5V6S/work/40/8dba899c20c42488f2b1a17844994e

>  <Rbt.Executable>
rbdock ($Id: //depot/dev/client3/rdock/2013.1/src/exe/rbdock.cxx#4 $)

>  <Rbt.Library>
libRbt.so (2013.1, Build901 2013/11/27)

>  <Rbt.Parameter_File>
/rDock_2013.1_src/data/scripts/dock.prm

>  <Rbt.Receptor>
docking.prm

>  <SCORE>
-9.82616

>  <SCORE.INTER>
-8.22671

>  <SCORE.INTER.CONST>
1

>  <SCORE.INTER.POLAR>
0

>  <SCORE.INTER.REPUL>
0

>  <SCORE.INTER.ROT>
2

>  <SCORE.INTER.VDW>
-15.6267

>  <SCORE.INTER.norm>
-0.514169

>  <SCORE.INTRA>
-0.0872798

>  <SCORE.INTRA.DIHEDRAL>
-1.16391

>  <SCORE.INTRA.DIHEDRAL.0>
5.87354

>  <SCORE.INTRA.POLAR>
0

>  <SCORE.INTRA.POLAR.0>
0

>  <SCORE.INTRA.REPUL>
0

>  <SCORE.INTRA.REPUL.0>
0

>  <SCORE.INTRA.VDW>
0.494673

>  <SCORE.INTRA.VDW.0>
-0.0514597

>  <SCORE.INTRA.norm>
-0.00545499

>  <SCORE.RESTR>
0

>  <SCORE.RESTR.CAVITY>
0

>  <SCORE.RESTR.norm>
0

>  <SCORE.SYSTEM>
-1.51217

>  <SCORE.SYSTEM.CONST>
0

>  <SCORE.SYSTEM.DIHEDRAL>
0.346101

>  <SCORE.SYSTEM.POLAR>
-0.502415

>  <SCORE.SYSTEM.VDW>
0.0229897

>  <SCORE.SYSTEM.norm>
-0.0945106

>  <SCORE.heavy>
16

>  <SCORE.norm>
-0.614135

>  <enum_code>
T

>  <enum_smi>
COc1c(Cl)cc(Cl)cc1C1=NNC(=N)C1

>  <sha256>
0220565b592d6bbf24b09234e18ce1e3bcd7b2483639a8f09b309f48b2132b18

>  <std_smi>
COc1c(Cl)cc(Cl)cc1-c1cc(N)n[nH]1

>  <uuid>
e122dae0-2099-4fc2-bbd3-8b45e0221088

$$$$
128a2105-21b4-4a19-8e42-b1f51680c6f3
  rDOCK(R)          3D
libRbt.so/2013.1/901 2013/11/27
 20 21  0  0  0  0  0  0  0  0999 V2000
   -2.5882   23.2531    4.4642 C   0  0  0  0  0  0
   -3.3467   23.8086    5.5469 O   0  0  0  0  0  0
   -3.1362   25.1593    5.6515 C   0  0  0  0  0  0
   -1.9669   25.6539    6.2584 C   0  0  0  0  0  0
   -0.7167   24.6017    6.8190 Cl  0  0  0  0  0  0
   -1.7656   27.0272    6.3952 C   0  0  0  0  0  0
   -2.7207   27.9090    5.9044 C   0  0  0  0  0  0
   -2.4863   29.6042    6.0705 Cl  0  0  0  0  0  0
   -3.8605   27.4360    5.2529 C   0  0  0  0  0  0
   -4.0623   26.0583    5.1002 C   0  0  0  0  0  0
   -5.3276   25.5955    4.2721 C   0  0  0  0  0  0
   -5.6522   24.2493    3.7831 C   0  0  0  0  0  0
   -6.8965   24.3113    3.0536 C   0  0  0  0  0  0
   -7.5303   23.1732    2.4229 N   0  0  0  0  0  0
   -7.3684   25.6260    3.0575 N   0  3  0  0  0  0
   -6.3716   26.4603    3.8337 N   0  0  0  0  0  0
   -8.4031   23.2133    1.9055 H   0  0  0  0  0  0
   -7.1000   22.2505    2.4691 H   0  0  0  0  0  0
   -8.2206   25.9646    2.6182 H   0  0  0  0  0  0
   -6.4702   27.4630    3.9915 H   0  0  0  0  0  0
  1  2  1  0  0  0
  2  3  1  0  0  0
  3  4  2  0  0  0
  4  5  1  0  0  0
  4  6  1  0  0  0
  6  7  2  0  0  0
  7  8  1  0  0  0
  7  9  1  0  0  0
  9 10  2  0  0  0
 10 11  1  0  0  0
 11 12  2  0  0  0
 12 13  1  0  0  0
 13 14  1  0  0  0
 13 15  2  0  0  0
 15 16  1  0  0  0
 10  3  1  0  0  0
 16 11  1  0  0  0
 14 17  1  0  0  0
 14 18  1  0  0  0
 15 19  1  0  0  0
 16 20  1  0  0  0
M  END
>  <CHROM.0>
-59.88758699,69.20771635

>  <CHROM.1>
-78.59786411,-9.33654536,-3.74658187,25.81404911,5.08840798,-2.66064798,-0.52237190
0.11964427

>  <Name>
128a2105-21b4-4a19-8e42-b1f51680c6f3

>  <RI>
4.29724e+07

>  <Rbt.Current_Directory>
/data/work/jku/5V6S/work/40/8dba899c20c42488f2b1a17844994e

>  <Rbt.Executable>
rbdock ($Id: //depot/dev/client3/rdock/2013.1/src/exe/rbdock.cxx#4 $)

>  <Rbt.Library>
libRbt.so (2013.1, Build901 2013/11/27)

>  <Rbt.Parameter_File>
/rDock_2013.1_src/data/scripts/dock.prm

>  <Rbt.Receptor>
docking.prm

>  <SCORE>
-15.5076

>  <SCORE.INTER>
-14.4883

>  <SCORE.INTER.CONST>
1

>  <SCORE.INTER.POLAR>
-1.34954

>  <SCORE.INTER.REPUL>
0

>  <SCORE.INTER.ROT>
2

>  <SCORE.INTER.VDW>
-17.2998

>  <SCORE.INTER.norm>
-0.905517

>  <SCORE.INTRA>
0.493954

>  <SCORE.INTRA.DIHEDRAL>
0.232707

>  <SCORE.INTRA.DIHEDRAL.0>
4.75824

>  <SCORE.INTRA.POLAR>
0

>  <SCORE.INTRA.POLAR.0>
0

>  <SCORE.INTRA.REPUL>
0

>  <SCORE.INTRA.REPUL.0>
0

>  <SCORE.INTRA.VDW>
0.377601

>  <SCORE.INTRA.VDW.0>
-0.686781

>  <SCORE.INTRA.norm>
0.0308721

>  <SCORE.RESTR>
0

>  <SCORE.RESTR.CAVITY>
0

>  <SCORE.RESTR.norm>
0

>  <SCORE.SYSTEM>
-1.51325

>  <SCORE.SYSTEM.CONST>
0

>  <SCORE.SYSTEM.DIHEDRAL>
0.417973

>  <SCORE.SYSTEM.POLAR>
-0.503095

>  <SCORE.SYSTEM.VDW>
-0.0117119

>  <SCORE.SYSTEM.norm>
-0.0945781

>  <SCORE.heavy>
16

>  <SCORE.norm>
-0.969223

>  <enum_code>
M

>  <enum_smi>
COc1c(Cl)cc(Cl)cc1-c1cc(N)[nH+][nH]1

>  <sha256>
0220565b592d6bbf24b09234e18ce1e3bcd7b2483639a8f09b309f48b2132b18

>  <std_smi>
COc1c(Cl)cc(Cl)cc1-c1cc(N)n[nH]1

>  <uuid>
128a2105-21b4-4a19-8e42-b1f51680c6f3

$$$$
128a2105-21b4-4a19-8e42-b1f51680c6f3
  rDOCK(R)          3D
libRbt.so/2013.1/901 2013/11/27
 20 21  0  0  0  0  0  0  0  0999 V2000
   -4.1305   20.5898    3.9071 C   0  0  0  0  0  0
   -3.6617   21.5879    2.9905 O   0  0  0  0  0  0
   -2.9158   22.5382    3.6390 C   0  0  0  0  0  0
   -1.5673   22.2919    3.9564 C   0  0  0  0  0  0
   -0.7704   20.8355    3.4786 Cl  0  0  0  0  0  0
   -0.8157   23.2440    4.6448 C   0  0  0  0  0  0
   -1.4030   24.4533    4.9959 C   0  0  0  0  0  0
   -0.4884   25.6336    5.8484 Cl  0  0  0  0  0  0
   -2.7233   24.7344    4.6423 C   0  0  0  0  0  0
   -3.4797   23.7879    3.9391 C   0  0  0  0  0  0
   -4.9368   24.2083    3.4910 C   0  0  0  0  0  0
   -5.6517   25.4586    3.7782 C   0  0  0  0  0  0
   -6.9663   25.3845    3.1860 C   0  0  0  0  0  0
   -7.9574   26.4363    3.2651 N   0  0  0  0  0  0
   -7.1143   24.1528    2.5442 N   0  3  0  0  0  0
   -5.8215   23.3879    2.7332 N   0  0  0  0  0  0
   -8.8844   26.3866    2.8536 H   0  0  0  0  0  0
   -7.7557   27.3001    3.7669 H   0  0  0  0  0  0
   -7.9375   23.8252    2.0452 H   0  0  0  0  0  0
   -5.6557   22.4516    2.3644 H   0  0  0  0  0  0
  1  2  1  0  0  0
  2  3  1  0  0  0
  3  4  2  0  0  0
  4  5  1  0  0  0
  4  6  1  0  0  0
  6  7  2  0  0  0
  7  8  1  0  0  0
  7  9  1  0  0  0
  9 10  2  0  0  0
 10 11  1  0  0  0
 11 12  2  0  0  0
 12 13  1  0  0  0
 13 14  1  0  0  0
 13 15  2  0  0  0
 15 16  1  0  0  0
 10  3  1  0  0  0
 16 11  1  0  0  0
 14 17  1  0  0  0
 14 18  1  0  0  0
 15 19  1  0  0  0
 16 20  1  0  0  0
M  END
>  <CHROM.0>
-59.88758699,-179.42034648

>  <CHROM.1>
80.41010620,177.78689962,-3.33269455,23.57631085,3.92438299,0.25108346,0.32765051
-2.79248056

>  <Name>
128a2105-21b4-4a19-8e42-b1f51680c6f3

>  <RI>
4.29724e+07

>  <Rbt.Current_Directory>
/data/work/jku/5V6S/work/40/8dba899c20c42488f2b1a17844994e

>  <Rbt.Executable>
rbdock ($Id: //depot/dev/client3/rdock/2013.1/src/exe/rbdock.cxx#4 $)

>  <Rbt.Library>
libRbt.so (2013.1, Build901 2013/11/27)

>  <Rbt.Parameter_File>
/rDock_2013.1_src/data/scripts/dock.prm

>  <Rbt.Receptor>
docking.prm

>  <SCORE>
-15.1278

>  <SCORE.INTER>
-14.2044

>  <SCORE.INTER.CONST>
1

>  <SCORE.INTER.POLAR>
-1.37161

>  <SCORE.INTER.REPUL>
0

>  <SCORE.INTER.ROT>
2

>  <SCORE.INTER.VDW>
-16.9409

>  <SCORE.INTER.norm>
-0.887775

>  <SCORE.INTRA>
-0.652543

>  <SCORE.INTRA.DIHEDRAL>
-0.111588

>  <SCORE.INTRA.DIHEDRAL.0>
4.75824

>  <SCORE.INTRA.POLAR>
-0.161634

>  <SCORE.INTRA.POLAR.0>
0

>  <SCORE.INTRA.REPUL>
0

>  <SCORE.INTRA.REPUL.0>
0

>  <SCORE.INTRA.VDW>
-0.0471927

>  <SCORE.INTRA.VDW.0>
-0.686781

>  <SCORE.INTRA.norm>
-0.0407839

>  <SCORE.RESTR>
0

>  <SCORE.RESTR.CAVITY>
0

>  <SCORE.RESTR.norm>
0

>  <SCORE.SYSTEM>
-0.270824

>  <SCORE.SYSTEM.CONST>
0

>  <SCORE.SYSTEM.DIHEDRAL>
0.00928924

>  <SCORE.SYSTEM.VDW>
-0.275468

>  <SCORE.SYSTEM.norm>
-0.0169265

>  <SCORE.heavy>
16

>  <SCORE.norm>
-0.945485

>  <enum_code>
M

>  <enum_smi>
COc1c(Cl)cc(Cl)cc1-c1cc(N)[nH+][nH]1

>  <sha256>
0220565b592d6bbf24b09234e18ce1e3bcd7b2483639a8f09b309f48b2132b18

>  <std_smi>
COc1c(Cl)cc(Cl)cc1-c1cc(N)n[nH]1

>  <uuid>
128a2105-21b4-4a19-8e42-b1f51680c6f3

$$$$
128a2105-21b4-4a19-8e42-b1f51680c6f3
  rDOCK(R)          3D
libRbt.so/2013.1/901 2013/11/27
 20 21  0  0  0  0  0  0  0  0999 V2000
   -2.7196   27.4578    4.9766 C   0  0  0  0  0  0
   -3.5393   26.5673    5.7456 O   0  0  0  0  0  0
   -3.4002   25.2742    5.3117 C   0  0  0  0  0  0
   -2.3145   24.4901    5.7435 C   0  0  0  0  0  0
   -1.1647   25.0792    6.8904 Cl  0  0  0  0  0  0
   -2.1529   23.1853    5.2781 C   0  0  0  0  0  0
   -3.0888   22.6535    4.3995 C   0  0  0  0  0  0
   -2.8988   21.0476    3.8153 Cl  0  0  0  0  0  0
   -4.1995   23.3994    4.0029 C   0  0  0  0  0  0
   -4.3749   24.7058    4.4771 C   0  0  0  0  0  0
   -5.7015   25.4592    4.0605 C   0  0  0  0  0  0
   -6.1588   26.7920    4.4742 C   0  0  0  0  0  0
   -7.4407   27.0501    3.8621 C   0  0  0  0  0  0
   -8.2014   28.2679    4.0440 N   0  0  0  0  0  0
   -7.8123   25.9485    3.0880 N   0  3  0  0  0  0
   -6.7073   24.9204    3.2073 N   0  0  0  0  0  0
   -9.1050   28.4517    3.6188 H   0  0  0  0  0  0
   -7.8467   29.0151    4.6395 H   0  0  0  0  0  0
   -8.6673   25.8498    2.5466 H   0  0  0  0  0  0
   -6.7214   24.0138    2.7405 H   0  0  0  0  0  0
  1  2  1  0  0  0
  2  3  1  0  0  0
  3  4  2  0  0  0
  4  5  1  0  0  0
  4  6  1  0  0  0
  6  7  2  0  0  0
  7  8  1  0  0  0
  7  9  1  0  0  0
  9 10  2  0  0  0
 10 11  1  0  0  0
 11 12  2  0  0  0
 12 13  1  0  0  0
 13 14  1  0  0  0
 13 15  2  0  0  0
 15 16  1  0  0  0
 10  3  1  0  0  0
 16 11  1  0  0  0
 14 17  1  0  0  0
 14 18  1  0  0  0
 15 19  1  0  0  0
 16 20  1  0  0  0
M  END
>  <CHROM.0>
-59.88758699,68.80453306

>  <CHROM.1>
82.01484880,-2.06161053,-4.13500571,24.86299288,4.70217912,-2.66459546,0.48388973
-2.77323512

>  <Name>
128a2105-21b4-4a19-8e42-b1f51680c6f3

>  <RI>
4.29724e+07

>  <Rbt.Current_Directory>
/data/work/jku/5V6S/work/40/8dba899c20c42488f2b1a17844994e

>  <Rbt.Executable>
rbdock ($Id: //depot/dev/client3/rdock/2013.1/src/exe/rbdock.cxx#4 $)

>  <Rbt.Library>
libRbt.so (2013.1, Build901 2013/11/27)

>  <Rbt.Parameter_File>
/rDock_2013.1_src/data/scripts/dock.prm

>  <Rbt.Receptor>
docking.prm

>  <SCORE>
-15.8369

>  <SCORE.INTER>
-14.2756

>  <SCORE.INTER.CONST>
1

>  <SCORE.INTER.POLAR>
-1.15014

>  <SCORE.INTER.REPUL>
0

>  <SCORE.INTER.ROT>
2

>  <SCORE.INTER.VDW>
-17.7651

>  <SCORE.INTER.norm>
-0.892222

>  <SCORE.INTRA>
-0.047689

>  <SCORE.INTRA.DIHEDRAL>
-0.0674436

>  <SCORE.INTRA.DIHEDRAL.0>
4.75824

>  <SCORE.INTRA.POLAR>
0

>  <SCORE.INTRA.POLAR.0>
0

>  <SCORE.INTRA.REPUL>
0

>  <SCORE.INTRA.REPUL.0>
0

>  <SCORE.INTRA.VDW>
-0.0139672

>  <SCORE.INTRA.VDW.0>
-0.686781

>  <SCORE.INTRA.norm>
-0.00298056

>  <SCORE.RESTR>
0

>  <SCORE.RESTR.CAVITY>
0

>  <SCORE.RESTR.norm>
0

>  <SCORE.SYSTEM>
-1.51362

>  <SCORE.SYSTEM.CONST>
0

>  <SCORE.SYSTEM.DIHEDRAL>
0.383449

>  <SCORE.SYSTEM.POLAR>
-0.502851

>  <SCORE.SYSTEM.VDW>
0.00435247

>  <SCORE.SYSTEM.norm>
-0.094601

>  <SCORE.heavy>
16

>  <SCORE.norm>
-0.989804

>  <enum_code>
M

>  <enum_smi>
COc1c(Cl)cc(Cl)cc1-c1cc(N)[nH+][nH]1

>  <sha256>
0220565b592d6bbf24b09234e18ce1e3bcd7b2483639a8f09b309f48b2132b18

>  <std_smi>
COc1c(Cl)cc(Cl)cc1-c1cc(N)n[nH]1

>  <uuid>
128a2105-21b4-4a19-8e42-b1f51680c6f3

$$$$
128a2105-21b4-4a19-8e42-b1f51680c6f3
  rDOCK(R)          3D
libRbt.so/2013.1/901 2013/11/27
 20 21  0  0  0  0  0  0  0  0999 V2000
   -2.7536   27.4980    4.9357 C   0  0  0  0  0  0
   -3.5409   26.6054    5.7355 O   0  0  0  0  0  0
   -3.4001   25.3102    5.3086 C   0  0  0  0  0  0
   -2.3112   24.5311    5.7415 C   0  0  0  0  0  0
   -1.1593   25.1295    6.8815 Cl  0  0  0  0  0  0
   -2.1479   23.2241    5.2831 C   0  0  0  0  0  0
   -3.0852   22.6850    4.4105 C   0  0  0  0  0  0
   -2.8931   21.0762    3.8348 Cl  0  0  0  0  0  0
   -4.1989   23.4260    4.0129 C   0  0  0  0  0  0
   -4.3759   24.7346    4.4802 C   0  0  0  0  0  0
   -5.7056   25.4825    4.0634 C   0  0  0  0  0  0
   -6.1670   26.8147    4.4744 C   0  0  0  0  0  0
   -7.4505   27.0670    3.8633 C   0  0  0  0  0  0
   -8.2152   28.2826    4.0431 N   0  0  0  0  0  0
   -7.8192   25.9622    3.0922 N   0  3  0  0  0  0
   -6.7106   24.9382    3.2127 N   0  0  0  0  0  0
   -9.1199   28.4622    3.6185 H   0  0  0  0  0  0
   -7.8624   29.0324    4.6364 H   0  0  0  0  0  0
   -8.6745   25.8593    2.5520 H   0  0  0  0  0  0
   -6.7221   24.0304    2.7481 H   0  0  0  0  0  0
  1  2  1  0  0  0
  2  3  1  0  0  0
  3  4  2  0  0  0
  4  5  1  0  0  0
  4  6  1  0  0  0
  6  7  2  0  0  0
  7  8  1  0  0  0
  7  9  1  0  0  0
  9 10  2  0  0  0
 10 11  1  0  0  0
 11 12  2  0  0  0
 12 13  1  0  0  0
 13 14  1  0  0  0
 13 15  2  0  0  0
 15 16  1  0  0  0
 10  3  1  0  0  0
 16 11  1  0  0  0
 14 17  1  0  0  0
 14 18  1  0  0  0
 15 19  1  0  0  0
 16 20  1  0  0  0
M  END
>  <CHROM.0>
-59.88758699,68.55746741

>  <CHROM.1>
83.57776308,-2.28828017,-4.13751068,24.89386596,4.70252090,-2.66507715,0.48045025
-2.77796801

>  <Name>
128a2105-21b4-4a19-8e42-b1f51680c6f3

>  <RI>
4.29724e+07

>  <Rbt.Current_Directory>
/data/work/jku/5V6S/work/40/8dba899c20c42488f2b1a17844994e

>  <Rbt.Executable>
rbdock ($Id: //depot/dev/client3/rdock/2013.1/src/exe/rbdock.cxx#4 $)

>  <Rbt.Library>
libRbt.so (2013.1, Build901 2013/11/27)

>  <Rbt.Parameter_File>
/rDock_2013.1_src/data/scripts/dock.prm

>  <Rbt.Receptor>
docking.prm

>  <SCORE>
-15.8491

>  <SCORE.INTER>
-14.2771

>  <SCORE.INTER.CONST>
1

>  <SCORE.INTER.POLAR>
-1.14714

>  <SCORE.INTER.REPUL>
0

>  <SCORE.INTER.ROT>
2

>  <SCORE.INTER.VDW>
-17.7768

>  <SCORE.INTER.norm>
-0.892316

>  <SCORE.INTRA>
-0.0590006

>  <SCORE.INTRA.DIHEDRAL>
-0.0250758

>  <SCORE.INTRA.DIHEDRAL.0>
4.75824

>  <SCORE.INTRA.POLAR>
0

>  <SCORE.INTRA.POLAR.0>
0

>  <SCORE.INTRA.REPUL>
0

>  <SCORE.INTRA.REPUL.0>
0

>  <SCORE.INTRA.VDW>
-0.0464627

>  <SCORE.INTRA.VDW.0>
-0.686781

>  <SCORE.INTRA.norm>
-0.00368753

>  <SCORE.RESTR>
0

>  <SCORE.RESTR.CAVITY>
0

>  <SCORE.RESTR.norm>
0

>  <SCORE.SYSTEM>
-1.51308

>  <SCORE.SYSTEM.CONST>
0

>  <SCORE.SYSTEM.DIHEDRAL>
0.363002

>  <SCORE.SYSTEM.POLAR>
-0.502636

>  <SCORE.SYSTEM.VDW>
0.0143809

>  <SCORE.SYSTEM.norm>
-0.0945675

>  <SCORE.heavy>
16

>  <SCORE.norm>
-0.990571

>  <enum_code>
M

>  <enum_smi>
COc1c(Cl)cc(Cl)cc1-c1cc(N)[nH+][nH]1

>  <sha256>
0220565b592d6bbf24b09234e18ce1e3bcd7b2483639a8f09b309f48b2132b18

>  <std_smi>
COc1c(Cl)cc(Cl)cc1-c1cc(N)n[nH]1

>  <uuid>
128a2105-21b4-4a19-8e42-b1f51680c6f3

$$$$
128a2105-21b4-4a19-8e42-b1f51680c6f3
  rDOCK(R)          3D
libRbt.so/2013.1/901 2013/11/27
 20 21  0  0  0  0  0  0  0  0999 V2000
   -5.9428   26.4378    5.0332 C   0  0  0  0  0  0
   -4.9215   26.3052    4.0353 O   0  0  0  0  0  0
   -3.7600   25.8244    4.5827 C   0  0  0  0  0  0
   -3.4970   24.4422    4.5966 C   0  0  0  0  0  0
   -4.5682   23.3037    3.8612 Cl  0  0  0  0  0  0
   -2.3314   23.9481    5.1819 C   0  0  0  0  0  0
   -1.4153   24.8359    5.7326 C   0  0  0  0  0  0
    0.0235   24.2392    6.4608 Cl  0  0  0  0  0  0
   -1.6359   26.2128    5.6800 C   0  0  0  0  0  0
   -2.7981   26.7163    5.0818 C   0  0  0  0  0  0
   -2.9394   28.2878    4.9752 C   0  0  0  0  0  0
   -2.0353   29.3200    5.4985 C   0  0  0  0  0  0
   -2.5854   30.6173    5.1840 C   0  0  0  0  0  0
   -1.9674   31.8752    5.5454 N   0  0  0  0  0  0
   -3.7879   30.4530    4.4926 N   0  3  0  0  0  0
   -4.0280   28.9647    4.3532 N   0  0  0  0  0  0
   -2.3529   32.7895    5.3297 H   0  0  0  0  0  0
   -1.0882   31.8901    6.0607 H   0  0  0  0  0  0
   -4.3946   31.1931    4.1488 H   0  0  0  0  0  0
   -4.8402   28.5610    3.8870 H   0  0  0  0  0  0
  1  2  1  0  0  0
  2  3  1  0  0  0
  3  4  2  0  0  0
  4  5  1  0  0  0
  4  6  1  0  0  0
  6  7  2  0  0  0
  7  8  1  0  0  0
  7  9  1  0  0  0
  9 10  2  0  0  0
 10 11  1  0  0  0
 11 12  2  0  0  0
 12 13  1  0  0  0
 13 14  1  0  0  0
 13 15  2  0  0  0
 15 16  1  0  0  0
 10  3  1  0  0  0
 16 11  1  0  0  0
 14 17  1  0  0  0
 14 18  1  0  0  0
 15 19  1  0  0  0
 16 20  1  0  0  0
M  END
>  <CHROM.0>
-59.88758699,68.95457410

>  <CHROM.1>
92.53927407,177.45839573,-2.93808247,26.52585583,5.02670802,1.60321321,-0.42492640
0.02206349

>  <Name>
128a2105-21b4-4a19-8e42-b1f51680c6f3

>  <RI>
4.29724e+07

>  <Rbt.Current_Directory>
/data/work/jku/5V6S/work/40/8dba899c20c42488f2b1a17844994e

>  <Rbt.Executable>
rbdock ($Id: //depot/dev/client3/rdock/2013.1/src/exe/rbdock.cxx#4 $)

>  <Rbt.Library>
libRbt.so (2013.1, Build901 2013/11/27)

>  <Rbt.Parameter_File>
/rDock_2013.1_src/data/scripts/dock.prm

>  <Rbt.Receptor>
docking.prm

>  <SCORE>
-12.753

>  <SCORE.INTER>
-10.889

>  <SCORE.INTER.CONST>
1

>  <SCORE.INTER.POLAR>
-0.961941

>  <SCORE.INTER.REPUL>
0

>  <SCORE.INTER.ROT>
2

>  <SCORE.INTER.VDW>
-15.0184

>  <SCORE.INTER.norm>
-0.680565

>  <SCORE.INTRA>
-0.350351

>  <SCORE.INTRA.DIHEDRAL>
0.0658944

>  <SCORE.INTRA.DIHEDRAL.0>
4.75824

>  <SCORE.INTRA.POLAR>
-0.117139

>  <SCORE.INTRA.POLAR.0>
0

>  <SCORE.INTRA.REPUL>
0

>  <SCORE.INTRA.REPUL.0>
0

>  <SCORE.INTRA.VDW>
0.0149758

>  <SCORE.INTRA.VDW.0>
-0.686781

>  <SCORE.INTRA.norm>
-0.0218969

>  <SCORE.RESTR>
0

>  <SCORE.RESTR.CAVITY>
0

>  <SCORE.RESTR.norm>
0

>  <SCORE.SYSTEM>
-1.51366

>  <SCORE.SYSTEM.CONST>
0

>  <SCORE.SYSTEM.DIHEDRAL>
0.39613

>  <SCORE.SYSTEM.POLAR>
-0.502957

>  <SCORE.SYSTEM.VDW>
-0.00166912

>  <SCORE.SYSTEM.norm>
-0.0946037

>  <SCORE.heavy>
16

>  <SCORE.norm>
-0.797066

>  <enum_code>
M

>  <enum_smi>
COc1c(Cl)cc(Cl)cc1-c1cc(N)[nH+][nH]1

>  <sha256>
0220565b592d6bbf24b09234e18ce1e3bcd7b2483639a8f09b309f48b2132b18

>  <std_smi>
COc1c(Cl)cc(Cl)cc1-c1cc(N)n[nH]1

>  <uuid>
128a2105-21b4-4a19-8e42-b1f51680c6f3

$$$$
a33e08a6-2638-4659-893e-40a1f3f13984
  rDOCK(R)          3D
libRbt.so/2013.1/901 2013/11/27
 19 20  0  0  0  0  0  0  0  0999 V2000
   -1.3037   28.0728    0.8384 C   0  0  0  0  0  0
   -0.4093   28.3450    1.9165 O   0  0  0  0  0  0
   -1.0879   28.8392    3.0040 C   0  0  0  0  0  0
   -1.5788   27.9435    3.9672 C   0  0  0  0  0  0
   -1.3730   26.2351    3.8006 Cl  0  0  0  0  0  0
   -2.2600   28.4136    5.0903 C   0  0  0  0  0  0
   -2.4368   29.7829    5.2603 C   0  0  0  0  0  0
   -3.2790   30.3681    6.6422 Cl  0  0  0  0  0  0
   -1.9333   30.6871    4.3265 C   0  0  0  0  0  0
   -1.2423   30.2244    3.1956 C   0  0  0  0  0  0
   -0.7039   31.2094    2.2633 C   0  0  0  0  0  0
   -0.2667   30.9475    0.8975 C   0  0  0  0  0  0
    0.1747   32.2892    0.3763 C   0  0  0  0  0  0
    0.6585   32.5774   -0.8106 N   0  0  0  0  0  0
   -0.0747   33.1557    1.5139 N   0  3  0  0  0  0
   -0.5971   32.5274    2.6078 N   0  5  0  0  0  0
    0.9176   33.5293   -1.0364 H   0  0  0  0  0  0
    0.7620   31.8320   -1.4885 H   0  0  0  0  0  0
    0.1084   34.1499    1.5237 H   0  0  0  0  0  0
  1  2  1  0  0  0
  2  3  1  0  0  0
  3  4  2  0  0  0
  4  5  1  0  0  0
  4  6  1  0  0  0
  6  7  2  0  0  0
  7  8  1  0  0  0
  7  9  1  0  0  0
  9 10  2  0  0  0
 10 11  1  0  0  0
 11 12  2  0  0  0
 12 13  1  0  0  0
 13 14  1  0  0  0
 13 15  2  0  0  0
 15 16  1  0  0  0
 10  3  1  0  0  0
 16 11  1  0  0  0
 14 17  1  0  0  0
 14 18  1  0  0  0
 15 19  1  0  0  0
M  END
>  <CHROM.0>
-59.88758699,69.57264527

>  <CHROM.1>
90.27282407,16.79069089,-1.27892169,29.81985892,3.13877607,-0.58833016,-1.10068254
-3.10575893

>  <Name>
a33e08a6-2638-4659-893e-40a1f3f13984

>  <RI>
1.20026e+07

>  <Rbt.Current_Directory>
/data/work/jku/5V6S/work/40/8dba899c20c42488f2b1a17844994e

>  <Rbt.Executable>
rbdock ($Id: //depot/dev/client3/rdock/2013.1/src/exe/rbdock.cxx#4 $)

>  <Rbt.Library>
libRbt.so (2013.1, Build901 2013/11/27)

>  <Rbt.Parameter_File>
/rDock_2013.1_src/data/scripts/dock.prm

>  <Rbt.Receptor>
docking.prm

>  <SCORE>
-16.7734

>  <SCORE.INTER>
-12.6372

>  <SCORE.INTER.CONST>
1

>  <SCORE.INTER.POLAR>
-1.22594

>  <SCORE.INTER.REPUL>
0.0340843

>  <SCORE.INTER.ROT>
2

>  <SCORE.INTER.VDW>
-16.0395

>  <SCORE.INTER.norm>
-0.789827

>  <SCORE.INTRA>
-2.62927

>  <SCORE.INTRA.DIHEDRAL>
-8.29793

>  <SCORE.INTRA.DIHEDRAL.0>
14.0334

>  <SCORE.INTRA.POLAR>
0

>  <SCORE.INTRA.POLAR.0>
0

>  <SCORE.INTRA.REPUL>
0

>  <SCORE.INTRA.REPUL.0>
0

>  <SCORE.INTRA.VDW>
1.5197

>  <SCORE.INTRA.VDW.0>
-1.12489

>  <SCORE.INTRA.norm>
-0.164329

>  <SCORE.RESTR>
0.00466372

>  <SCORE.RESTR.CAVITY>
0.00466372

>  <SCORE.RESTR.norm>
0.000291482

>  <SCORE.SYSTEM>
-1.5116

>  <SCORE.SYSTEM.CONST>
0

>  <SCORE.SYSTEM.DIHEDRAL>
0.450446

>  <SCORE.SYSTEM.POLAR>
-0.503204

>  <SCORE.SYSTEM.VDW>
-0.0259345

>  <SCORE.SYSTEM.norm>
-0.0944753

>  <SCORE.heavy>
16

>  <SCORE.norm>
-1.04834

>  <enum_code>
M

>  <enum_smi>
COc1c(Cl)cc(Cl)cc1-c1cc(N)[nH+][n-]1

>  <sha256>
0220565b592d6bbf24b09234e18ce1e3bcd7b2483639a8f09b309f48b2132b18

>  <std_smi>
COc1c(Cl)cc(Cl)cc1-c1cc(N)n[nH]1

>  <uuid>
a33e08a6-2638-4659-893e-40a1f3f13984

$$$$
a33e08a6-2638-4659-893e-40a1f3f13984
  rDOCK(R)          3D
libRbt.so/2013.1/901 2013/11/27
 19 20  0  0  0  0  0  0  0  0999 V2000
   -2.5393   26.9476    5.7271 C   0  0  0  0  0  0
   -2.6976   26.4915    4.3842 O   0  0  0  0  0  0
   -2.6476   25.1199    4.3230 C   0  0  0  0  0  0
   -1.3993   24.4793    4.3732 C   0  0  0  0  0  0
    0.0738   25.3777    4.4815 Cl  0  0  0  0  0  0
   -1.3145   23.0875    4.3275 C   0  0  0  0  0  0
   -2.4804   22.3329    4.2482 C   0  0  0  0  0  0
   -2.3814   20.6159    4.1883 Cl  0  0  0  0  0  0
   -3.7290   22.9522    4.2234 C   0  0  0  0  0  0
   -3.8252   24.3517    4.2739 C   0  0  0  0  0  0
   -5.1544   24.9536    4.2798 C   0  0  0  0  0  0
   -5.4490   26.3813    4.2614 C   0  0  0  0  0  0
   -6.9526   26.4587    4.2562 C   0  0  0  0  0  0
   -7.7078   27.5334    4.2461 N   0  0  0  0  0  0
   -7.3304   25.0571    4.2643 N   0  3  0  0  0  0
   -6.2822   24.1821    4.2662 N   0  5  0  0  0  0
   -8.7161   27.4461    4.2419 H   0  0  0  0  0  0
   -7.2612   28.4425    4.2396 H   0  0  0  0  0  0
   -8.2850   24.7244    4.2631 H   0  0  0  0  0  0
  1  2  1  0  0  0
  2  3  1  0  0  0
  3  4  2  0  0  0
  4  5  1  0  0  0
  4  6  1  0  0  0
  6  7  2  0  0  0
  7  8  1  0  0  0
  7  9  1  0  0  0
  9 10  2  0  0  0
 10 11  1  0  0  0
 11 12  2  0  0  0
 12 13  1  0  0  0
 13 14  1  0  0  0
 13 15  2  0  0  0
 15 16  1  0  0  0
 10  3  1  0  0  0
 16 11  1  0  0  0
 14 17  1  0  0  0
 14 18  1  0  0  0
 15 19  1  0  0  0
M  END
>  <CHROM.0>
-59.88758699,68.69737860

>  <CHROM.1>
-78.69472098,3.58176094,-3.45824451,24.53642877,4.38406988,-2.60119617,0.05942533
-3.05067556

>  <Name>
a33e08a6-2638-4659-893e-40a1f3f13984

>  <RI>
1.20026e+07

>  <Rbt.Current_Directory>
/data/work/jku/5V6S/work/40/8dba899c20c42488f2b1a17844994e

>  <Rbt.Executable>
rbdock ($Id: //depot/dev/client3/rdock/2013.1/src/exe/rbdock.cxx#4 $)

>  <Rbt.Library>
libRbt.so (2013.1, Build901 2013/11/27)

>  <Rbt.Parameter_File>
/rDock_2013.1_src/data/scripts/dock.prm

>  <Rbt.Receptor>
docking.prm

>  <SCORE>
-14.3452

>  <SCORE.INTER>
-9.6751

>  <SCORE.INTER.CONST>
1

>  <SCORE.INTER.POLAR>
0

>  <SCORE.INTER.REPUL>
0

>  <SCORE.INTER.ROT>
2

>  <SCORE.INTER.VDW>
-17.0751

>  <SCORE.INTER.norm>
-0.604694

>  <SCORE.INTRA>
-3.15669

>  <SCORE.INTRA.DIHEDRAL>
-9.3483

>  <SCORE.INTRA.DIHEDRAL.0>
14.0334

>  <SCORE.INTRA.POLAR>
0

>  <SCORE.INTRA.POLAR.0>
0

>  <SCORE.INTRA.REPUL>
0

>  <SCORE.INTRA.REPUL.0>
0

>  <SCORE.INTRA.VDW>
1.51746

>  <SCORE.INTRA.VDW.0>
-1.12489

>  <SCORE.INTRA.norm>
-0.197293

>  <SCORE.RESTR>
0

>  <SCORE.RESTR.CAVITY>
0

>  <SCORE.RESTR.norm>
0

>  <SCORE.SYSTEM>
-1.51345

>  <SCORE.SYSTEM.CONST>
0

>  <SCORE.SYSTEM.DIHEDRAL>
0.374515

>  <SCORE.SYSTEM.POLAR>
-0.502764

>  <SCORE.SYSTEM.VDW>
0.00868457

>  <SCORE.SYSTEM.norm>
-0.0945909

>  <SCORE.heavy>
16

>  <SCORE.norm>
-0.896578

>  <enum_code>
M

>  <enum_smi>
COc1c(Cl)cc(Cl)cc1-c1cc(N)[nH+][n-]1

>  <sha256>
0220565b592d6bbf24b09234e18ce1e3bcd7b2483639a8f09b309f48b2132b18

>  <std_smi>
COc1c(Cl)cc(Cl)cc1-c1cc(N)n[nH]1

>  <uuid>
a33e08a6-2638-4659-893e-40a1f3f13984

$$$$
a33e08a6-2638-4659-893e-40a1f3f13984
  rDOCK(R)          3D
libRbt.so/2013.1/901 2013/11/27
 19 20  0  0  0  0  0  0  0  0999 V2000
   -3.2923   33.4399    1.6900 C   0  0  0  0  0  0
   -2.1650   33.2681    2.5479 O   0  0  0  0  0  0
   -2.0609   31.9635    2.9656 C   0  0  0  0  0  0
   -2.9205   31.4986    3.9736 C   0  0  0  0  0  0
   -4.0847   32.5372    4.7183 Cl  0  0  0  0  0  0
   -2.8502   30.1756    4.4107 C   0  0  0  0  0  0
   -1.9303   29.3101    3.8278 C   0  0  0  0  0  0
   -1.8372   27.6779    4.3653 Cl  0  0  0  0  0  0
   -1.0871   29.7486    2.8081 C   0  0  0  0  0  0
   -1.1534   31.0766    2.3580 C   0  0  0  0  0  0
   -0.2749   31.4809    1.2653 C   0  0  0  0  0  0
   -0.0703   32.8436    0.7893 C   0  0  0  0  0  0
    0.9345   32.7100   -0.3240 C   0  0  0  0  0  0
    1.4410   33.6608   -1.0757 N   0  0  0  0  0  0
    1.1852   31.2803   -0.3390 N   0  3  0  0  0  0
    0.4890   30.5676    0.5947 N   0  5  0  0  0  0
    2.1159   33.4347   -1.7951 H   0  0  0  0  0  0
    1.1451   34.6165   -0.9174 H   0  0  0  0  0  0
    1.8230   30.8204   -0.9744 H   0  0  0  0  0  0
  1  2  1  0  0  0
  2  3  1  0  0  0
  3  4  2  0  0  0
  4  5  1  0  0  0
  4  6  1  0  0  0
  6  7  2  0  0  0
  7  8  1  0  0  0
  7  9  1  0  0  0
  9 10  2  0  0  0
 10 11  1  0  0  0
 11 12  2  0  0  0
 12 13  1  0  0  0
 13 14  1  0  0  0
 13 15  2  0  0  0
 15 16  1  0  0  0
 10  3  1  0  0  0
 16 11  1  0  0  0
 14 17  1  0  0  0
 14 18  1  0  0  0
 15 19  1  0  0  0
M  END
>  <CHROM.0>
-59.88758699,68.63101046

>  <CHROM.1>
-76.84411838,9.20896385,-1.49724717,31.27984399,2.50369310,0.70818579,0.72577239
-0.42396311

>  <Name>
a33e08a6-2638-4659-893e-40a1f3f13984

>  <RI>
1.20026e+07

>  <Rbt.Current_Directory>
/data/work/jku/5V6S/work/40/8dba899c20c42488f2b1a17844994e

>  <Rbt.Executable>
rbdock ($Id: //depot/dev/client3/rdock/2013.1/src/exe/rbdock.cxx#4 $)

>  <Rbt.Library>
libRbt.so (2013.1, Build901 2013/11/27)

>  <Rbt.Parameter_File>
/rDock_2013.1_src/data/scripts/dock.prm

>  <Rbt.Receptor>
docking.prm

>  <SCORE>
-15.692

>  <SCORE.INTER>
-11.086

>  <SCORE.INTER.CONST>
1

>  <SCORE.INTER.POLAR>
-0.67683

>  <SCORE.INTER.REPUL>
0.0927841

>  <SCORE.INTER.ROT>
2

>  <SCORE.INTER.VDW>
-16.6487

>  <SCORE.INTER.norm>
-0.692874

>  <SCORE.INTRA>
-3.09275

>  <SCORE.INTRA.DIHEDRAL>
-9.17385

>  <SCORE.INTRA.DIHEDRAL.0>
14.0334

>  <SCORE.INTRA.POLAR>
0

>  <SCORE.INTRA.POLAR.0>
0

>  <SCORE.INTRA.REPUL>
0

>  <SCORE.INTRA.REPUL.0>
0

>  <SCORE.INTRA.VDW>
1.49417

>  <SCORE.INTRA.VDW.0>
-1.12489

>  <SCORE.INTRA.norm>
-0.193297

>  <SCORE.RESTR>
0

>  <SCORE.RESTR.CAVITY>
0

>  <SCORE.RESTR.norm>
0

>  <SCORE.SYSTEM>
-1.5133

>  <SCORE.SYSTEM.CONST>
0

>  <SCORE.SYSTEM.DIHEDRAL>
0.369032

>  <SCORE.SYSTEM.POLAR>
-0.502705

>  <SCORE.SYSTEM.VDW>
0.011381

>  <SCORE.SYSTEM.norm>
-0.0945813

>  <SCORE.heavy>
16

>  <SCORE.norm>
-0.980752

>  <enum_code>
M

>  <enum_smi>
COc1c(Cl)cc(Cl)cc1-c1cc(N)[nH+][n-]1

>  <sha256>
0220565b592d6bbf24b09234e18ce1e3bcd7b2483639a8f09b309f48b2132b18

>  <std_smi>
COc1c(Cl)cc(Cl)cc1-c1cc(N)n[nH]1

>  <uuid>
a33e08a6-2638-4659-893e-40a1f3f13984

$$$$
a33e08a6-2638-4659-893e-40a1f3f13984
  rDOCK(R)          3D
libRbt.so/2013.1/901 2013/11/27
 19 20  0  0  0  0  0  0  0  0999 V2000
   -2.0154   27.6274    4.9502 C   0  0  0  0  0  0
   -2.3682   26.5976    5.8729 O   0  0  0  0  0  0
   -2.3601   25.3673    5.2614 C   0  0  0  0  0  0
   -1.2019   24.5771    5.3327 C   0  0  0  0  0  0
    0.2199   25.1290    6.1467 Cl  0  0  0  0  0  0
   -1.1655   23.3172    4.7345 C   0  0  0  0  0  0
   -2.2944   22.8383    4.0778 C   0  0  0  0  0  0
   -2.2539   21.2863    3.3355 Cl  0  0  0  0  0  0
   -3.4608   23.5994    4.0199 C   0  0  0  0  0  0
   -3.5091   24.8662    4.6226 C   0  0  0  0  0  0
   -4.7622   25.6117    4.5656 C   0  0  0  0  0  0
   -5.8611   25.3715    3.6382 C   0  0  0  0  0  0
   -6.9042   26.3901    4.0136 C   0  0  0  0  0  0
   -8.0821   26.5827    3.4648 N   0  0  0  0  0  0
   -6.2698   27.0833    5.1200 N   0  3  0  0  0  0
   -5.0274   26.6211    5.4476 N   0  5  0  0  0  0
   -8.6945   27.3075    3.8167 H   0  0  0  0  0  0
   -8.3611   25.9921    2.6906 H   0  0  0  0  0  0
   -6.6913   27.8472    5.6305 H   0  0  0  0  0  0
  1  2  1  0  0  0
  2  3  1  0  0  0
  3  4  2  0  0  0
  4  5  1  0  0  0
  4  6  1  0  0  0
  6  7  2  0  0  0
  7  8  1  0  0  0
  7  9  1  0  0  0
  9 10  2  0  0  0
 10 11  1  0  0  0
 11 12  2  0  0  0
 12 13  1  0  0  0
 13 14  1  0  0  0
 13 15  2  0  0  0
 15 16  1  0  0  0
 10  3  1  0  0  0
 16 11  1  0  0  0
 14 17  1  0  0  0
 14 18  1  0  0  0
 15 19  1  0  0  0
M  END
>  <CHROM.0>
-59.88758699,-179.88822711

>  <CHROM.1>
94.31654798,161.56883967,-3.19569006,24.91757732,4.68593222,-2.74274190,0.30902629
-2.72512398

>  <Name>
a33e08a6-2638-4659-893e-40a1f3f13984

>  <RI>
1.20026e+07

>  <Rbt.Current_Directory>
/data/work/jku/5V6S/work/40/8dba899c20c42488f2b1a17844994e

>  <Rbt.Executable>
rbdock ($Id: //depot/dev/client3/rdock/2013.1/src/exe/rbdock.cxx#4 $)

>  <Rbt.Library>
libRbt.so (2013.1, Build901 2013/11/27)

>  <Rbt.Parameter_File>
/rDock_2013.1_src/data/scripts/dock.prm

>  <Rbt.Receptor>
docking.prm

>  <SCORE>
-18.9583

>  <SCORE.INTER>
-15.3829

>  <SCORE.INTER.CONST>
1

>  <SCORE.INTER.POLAR>
-1.15962

>  <SCORE.INTER.REPUL>
0

>  <SCORE.INTER.ROT>
2

>  <SCORE.INTER.VDW>
-18.8402

>  <SCORE.INTER.norm>
-0.961432

>  <SCORE.INTRA>
-3.30368

>  <SCORE.INTRA.DIHEDRAL>
-7.81691

>  <SCORE.INTRA.DIHEDRAL.0>
14.0334

>  <SCORE.INTRA.POLAR>
0

>  <SCORE.INTRA.POLAR.0>
0

>  <SCORE.INTRA.REPUL>
0

>  <SCORE.INTRA.REPUL.0>
0

>  <SCORE.INTRA.VDW>
0.604777

>  <SCORE.INTRA.VDW.0>
-1.12489

>  <SCORE.INTRA.norm>
-0.20648

>  <SCORE.RESTR>
0

>  <SCORE.RESTR.CAVITY>
0

>  <SCORE.RESTR.norm>
0

>  <SCORE.SYSTEM>
-0.271728

>  <SCORE.SYSTEM.CONST>
0

>  <SCORE.SYSTEM.DIHEDRAL>
0.00769294

>  <SCORE.SYSTEM.VDW>
-0.275575

>  <SCORE.SYSTEM.norm>
-0.016983

>  <SCORE.heavy>
16

>  <SCORE.norm>
-1.18489

>  <enum_code>
M

>  <enum_smi>
COc1c(Cl)cc(Cl)cc1-c1cc(N)[nH+][n-]1

>  <sha256>
0220565b592d6bbf24b09234e18ce1e3bcd7b2483639a8f09b309f48b2132b18

>  <std_smi>
COc1c(Cl)cc(Cl)cc1-c1cc(N)n[nH]1

>  <uuid>
a33e08a6-2638-4659-893e-40a1f3f13984

$$$$
a33e08a6-2638-4659-893e-40a1f3f13984
  rDOCK(R)          3D
libRbt.so/2013.1/901 2013/11/27
 19 20  0  0  0  0  0  0  0  0999 V2000
   -0.8749   33.4956    3.7861 C   0  0  0  0  0  0
   -1.8526   32.8797    2.9487 O   0  0  0  0  0  0
   -1.8631   31.5175    3.1270 C   0  0  0  0  0  0
   -2.7166   30.9621    4.0935 C   0  0  0  0  0  0
   -3.7310   31.9546    5.0808 Cl  0  0  0  0  0  0
   -2.7618   29.5816    4.2899 C   0  0  0  0  0  0
   -1.9646   28.7524    3.5075 C   0  0  0  0  0  0
   -2.0140   27.0491    3.7477 Cl  0  0  0  0  0  0
   -1.1307   29.2857    2.5261 C   0  0  0  0  0  0
   -1.0817   30.6730    2.3174 C   0  0  0  0  0  0
   -0.2197   31.1825    1.2560 C   0  0  0  0  0  0
   -0.0605   32.5816    0.8784 C   0  0  0  0  0  0
    0.9451   32.5605   -0.2419 C   0  0  0  0  0  0
    1.4185   33.5784   -0.9240 N   0  0  0  0  0  0
    1.2419   31.1444   -0.3590 N   0  3  0  0  0  0
    0.5716   30.3447    0.5217 N   0  5  0  0  0  0
    2.0984   33.4262   -1.6581 H   0  0  0  0  0  0
    1.0923   34.5103   -0.6978 H   0  0  0  0  0  0
    1.8925   30.7519   -1.0258 H   0  0  0  0  0  0
  1  2  1  0  0  0
  2  3  1  0  0  0
  3  4  2  0  0  0
  4  5  1  0  0  0
  4  6  1  0  0  0
  6  7  2  0  0  0
  7  8  1  0  0  0
  7  9  1  0  0  0
  9 10  2  0  0  0
 10 11  1  0  0  0
 11 12  2  0  0  0
 12 13  1  0  0  0
 13 14  1  0  0  0
 13 15  2  0  0  0
 15 16  1  0  0  0
 10  3  1  0  0  0
 16 11  1  0  0  0
 14 17  1  0  0  0
 14 18  1  0  0  0
 15 19  1  0  0  0
M  END
>  <CHROM.0>
-59.88758699,68.76147224

>  <CHROM.1>
90.68225095,-0.92888954,-1.28016241,30.89011643,2.60382530,0.50698868,0.86532193
-0.03161598

>  <Name>
a33e08a6-2638-4659-893e-40a1f3f13984

>  <RI>
1.20026e+07

>  <Rbt.Current_Directory>
/data/work/jku/5V6S/work/40/8dba899c20c42488f2b1a17844994e

>  <Rbt.Executable>
rbdock ($Id: //depot/dev/client3/rdock/2013.1/src/exe/rbdock.cxx#4 $)

>  <Rbt.Library>
libRbt.so (2013.1, Build901 2013/11/27)

>  <Rbt.Parameter_File>
/rDock_2013.1_src/data/scripts/dock.prm

>  <Rbt.Receptor>
docking.prm

>  <SCORE>
-14.1626

>  <SCORE.INTER>
-9.4009

>  <SCORE.INTER.CONST>
1

>  <SCORE.INTER.POLAR>
-0.432055

>  <SCORE.INTER.REPUL>
0.00035786

>  <SCORE.INTER.ROT>
2

>  <SCORE.INTER.VDW>
-15.3337

>  <SCORE.INTER.norm>
-0.587556

>  <SCORE.INTRA>
-3.24819

>  <SCORE.INTRA.DIHEDRAL>
-9.21823

>  <SCORE.INTRA.DIHEDRAL.0>
14.0334

>  <SCORE.INTRA.POLAR>
0

>  <SCORE.INTRA.POLAR.0>
0

>  <SCORE.INTRA.REPUL>
0

>  <SCORE.INTRA.REPUL.0>
0

>  <SCORE.INTRA.VDW>
1.36093

>  <SCORE.INTRA.VDW.0>
-1.12489

>  <SCORE.INTRA.norm>
-0.203012

>  <SCORE.RESTR>
0

>  <SCORE.RESTR.CAVITY>
0

>  <SCORE.RESTR.norm>
0

>  <SCORE.SYSTEM>
-1.51356

>  <SCORE.SYSTEM.CONST>
0

>  <SCORE.SYSTEM.DIHEDRAL>
0.379846

>  <SCORE.SYSTEM.POLAR>
-0.502817

>  <SCORE.SYSTEM.VDW>
0.00609018

>  <SCORE.SYSTEM.norm>
-0.0945978

>  <SCORE.heavy>
16

>  <SCORE.norm>
-0.885165

>  <enum_code>
M

>  <enum_smi>
COc1c(Cl)cc(Cl)cc1-c1cc(N)[nH+][n-]1

>  <sha256>
0220565b592d6bbf24b09234e18ce1e3bcd7b2483639a8f09b309f48b2132b18

>  <std_smi>
COc1c(Cl)cc(Cl)cc1-c1cc(N)n[nH]1

>  <uuid>
a33e08a6-2638-4659-893e-40a1f3f13984

$$$$
745bd83b-e33e-4629-9ea3-d49090f8b5d0
  rDOCK(R)          3D
libRbt.so/2013.1/901 2013/11/27
 21 22  0  0  0  0  0  0  0  0999 V2000
   -5.6920   27.2475    5.5135 C   0  0  0  0  0  0
   -4.9365   27.3575    4.2978 O   0  0  0  0  0  0
   -3.7698   26.6275    4.3117 C   0  0  0  0  0  0
   -3.7319   25.2215    4.2726 C   0  0  0  0  0  0
   -5.1521   24.2572    4.0955 Cl  0  0  0  0  0  0
   -2.5094   24.5470    4.3166 C   0  0  0  0  0  0
   -1.3236   25.2711    4.3707 C   0  0  0  0  0  0
    0.1838   24.4475    4.4254 Cl  0  0  0  0  0  0
   -1.3365   26.6659    4.3524 C   0  0  0  0  0  0
   -2.5574   27.3444    4.3003 C   0  0  0  0  0  0
   -2.5654   28.9170    4.1948 C   0  0  0  0  0  0
   -3.6580   29.8456    4.5141 C   0  0  0  0  0  0
   -3.1798   31.2051    4.2946 C   0  0  0  0  0  0
   -4.0021   32.3981    4.5222 N   0  3  0  0  0  0
   -1.8364   31.1510    3.8531 N   0  3  0  0  0  0
   -1.4641   29.7063    3.7917 N   0  0  0  0  0  0
   -4.9084   32.1595    4.9573 H   0  0  0  0  0  0
   -3.5703   33.0771    5.1674 H   0  0  0  0  0  0
   -4.2492   32.9012    3.6567 H   0  0  0  0  0  0
   -1.1871   31.9066    3.6158 H   0  0  0  0  0  0
   -0.5471   29.3151    3.5310 H   0  0  0  0  0  0
  1  2  1  0  0  0
  2  3  1  0  0  0
  3  4  2  0  0  0
  4  5  1  0  0  0
  4  6  1  0  0  0
  6  7  2  0  0  0
  7  8  1  0  0  0
  7  9  1  0  0  0
  9 10  2  0  0  0
 10 11  1  0  0  0
 11 12  2  0  0  0
 12 13  1  0  0  0
 13 14  1  0  0  0
 13 15  2  0  0  0
 15 16  1  0  0  0
 10  3  1  0  0  0
 16 11  1  0  0  0
 14 17  1  0  0  0
 14 18  1  0  0  0
 14 19  1  0  0  0
 15 20  1  0  0  0
 16 21  1  0  0  0
M  END
>  <CHROM.0>
-59.88758699,68.71757570

>  <CHROM.1>
70.27360550,21.00371887,6.70162658,-2.92546106,27.19126485,4.32914890,1.68609805
0.05509697,-0.01087248

>  <Name>
745bd83b-e33e-4629-9ea3-d49090f8b5d0

>  <RI>
2.77148e+07

>  <Rbt.Current_Directory>
/data/work/jku/5V6S/work/40/8dba899c20c42488f2b1a17844994e

>  <Rbt.Executable>
rbdock ($Id: //depot/dev/client3/rdock/2013.1/src/exe/rbdock.cxx#4 $)

>  <Rbt.Library>
libRbt.so (2013.1, Build901 2013/11/27)

>  <Rbt.Parameter_File>
/rDock_2013.1_src/data/scripts/dock.prm

>  <Rbt.Receptor>
docking.prm

>  <SCORE>
-10.4995

>  <SCORE.INTER>
-10.7826

>  <SCORE.INTER.CONST>
1

>  <SCORE.INTER.POLAR>
-1.0435

>  <SCORE.INTER.REPUL>
0

>  <SCORE.INTER.ROT>
2

>  <SCORE.INTER.VDW>
-14.6347

>  <SCORE.INTER.norm>
-0.673913

>  <SCORE.INTRA>
1.7966

>  <SCORE.INTRA.DIHEDRAL>
2.15168

>  <SCORE.INTRA.DIHEDRAL.0>
4.63917

>  <SCORE.INTRA.POLAR>
0.372441

>  <SCORE.INTRA.POLAR.0>
-0.372441

>  <SCORE.INTRA.REPUL>
0

>  <SCORE.INTRA.REPUL.0>
0

>  <SCORE.INTRA.VDW>
-0.545539

>  <SCORE.INTRA.VDW.0>
-0.0923825

>  <SCORE.INTRA.norm>
0.112288

>  <SCORE.RESTR>
0

>  <SCORE.RESTR.CAVITY>
0

>  <SCORE.RESTR.norm>
0

>  <SCORE.SYSTEM>
-1.51349

>  <SCORE.SYSTEM.CONST>
0

>  <SCORE.SYSTEM.DIHEDRAL>
0.376191

>  <SCORE.SYSTEM.POLAR>
-0.502781

>  <SCORE.SYSTEM.VDW>
0.00786601

>  <SCORE.SYSTEM.norm>
-0.0945934

>  <SCORE.heavy>
16

>  <SCORE.norm>
-0.656218

>  <enum_code>
M

>  <enum_smi>
COc1c(Cl)cc(Cl)cc1-c1cc([NH3+])[nH+][nH]1

>  <sha256>
0220565b592d6bbf24b09234e18ce1e3bcd7b2483639a8f09b309f48b2132b18

>  <std_smi>
COc1c(Cl)cc(Cl)cc1-c1cc(N)n[nH]1

>  <uuid>
745bd83b-e33e-4629-9ea3-d49090f8b5d0

$$$$
745bd83b-e33e-4629-9ea3-d49090f8b5d0
  rDOCK(R)          3D
libRbt.so/2013.1/901 2013/11/27
 21 22  0  0  0  0  0  0  0  0999 V2000
   -1.0351   28.1193    0.8288 C   0  0  0  0  0  0
   -0.3699   29.1177    1.6172 O   0  0  0  0  0  0
   -1.2338   30.0070    2.2146 C   0  0  0  0  0  0
   -2.1445   29.6469    3.2248 C   0  0  0  0  0  0
   -2.2031   28.0607    3.9021 Cl  0  0  0  0  0  0
   -3.0104   30.5998    3.7669 C   0  0  0  0  0  0
   -2.9509   31.9167    3.3246 C   0  0  0  0  0  0
   -4.0134   33.0938    3.9871 Cl  0  0  0  0  0  0
   -2.0164   32.3068    2.3652 C   0  0  0  0  0  0
   -1.1430   31.3580    1.8263 C   0  0  0  0  0  0
   -0.0337   31.8182    0.8055 C   0  0  0  0  0  0
    0.2670   33.1784    0.3394 C   0  0  0  0  0  0
    1.4033   33.1077   -0.5710 C   0  0  0  0  0  0
    1.9889   34.2821   -1.2261 N   0  3  0  0  0  0
    1.8147   31.7584   -0.6842 N   0  3  0  0  0  0
    0.9004   30.9583    0.1839 N   0  0  0  0  0  0
    2.9888   34.3918   -0.9898 H   0  0  0  0  0  0
    1.9653   34.2319   -2.2560 H   0  0  0  0  0  0
    1.5522   35.1729   -0.9454 H   0  0  0  0  0  0
    2.5800   31.3431   -1.2232 H   0  0  0  0  0  0
    0.9382   29.9420    0.3497 H   0  0  0  0  0  0
  1  2  1  0  0  0
  2  3  1  0  0  0
  3  4  2  0  0  0
  4  5  1  0  0  0
  4  6  1  0  0  0
  6  7  2  0  0  0
  7  8  1  0  0  0
  7  9  1  0  0  0
  9 10  2  0  0  0
 10 11  1  0  0  0
 11 12  2  0  0  0
 12 13  1  0  0  0
 13 14  1  0  0  0
 13 15  2  0  0  0
 15 16  1  0  0  0
 10  3  1  0  0  0
 16 11  1  0  0  0
 14 17  1  0  0  0
 14 18  1  0  0  0
 14 19  1  0  0  0
 15 20  1  0  0  0
 16 21  1  0  0  0
M  END
>  <CHROM.0>
-59.88758699,179.28818386

>  <CHROM.1>
66.66781519,-176.32569480,121.29656114,-1.15770717,31.09689604,1.93375056
-2.62744079,0.72592951,-0.16366148

>  <Name>
745bd83b-e33e-4629-9ea3-d49090f8b5d0

>  <RI>
2.77148e+07

>  <Rbt.Current_Directory>
/data/work/jku/5V6S/work/40/8dba899c20c42488f2b1a17844994e

>  <Rbt.Executable>
rbdock ($Id: //depot/dev/client3/rdock/2013.1/src/exe/rbdock.cxx#4 $)

>  <Rbt.Library>
libRbt.so (2013.1, Build901 2013/11/27)

>  <Rbt.Parameter_File>
/rDock_2013.1_src/data/scripts/dock.prm

>  <Rbt.Receptor>
docking.prm

>  <SCORE>
-13.5682

>  <SCORE.INTER>
-13.0796

>  <SCORE.INTER.CONST>
1

>  <SCORE.INTER.POLAR>
-1.23992

>  <SCORE.INTER.REPUL>
0

>  <SCORE.INTER.ROT>
2

>  <SCORE.INTER.VDW>
-16.2638

>  <SCORE.INTER.norm>
-0.817474

>  <SCORE.INTRA>
-0.221219

>  <SCORE.INTRA.DIHEDRAL>
0.531614

>  <SCORE.INTRA.DIHEDRAL.0>
4.63917

>  <SCORE.INTRA.POLAR>
-0.00737514

>  <SCORE.INTRA.POLAR.0>
-0.372441

>  <SCORE.INTRA.REPUL>
0

>  <SCORE.INTRA.REPUL.0>
0

>  <SCORE.INTRA.VDW>
-0.46195

>  <SCORE.INTRA.VDW.0>
-0.0923825

>  <SCORE.INTRA.norm>
-0.0138262

>  <SCORE.RESTR>
0.0033463

>  <SCORE.RESTR.CAVITY>
0.0033463

>  <SCORE.RESTR.norm>
0.000209144

>  <SCORE.SYSTEM>
-0.270738

>  <SCORE.SYSTEM.CONST>
0

>  <SCORE.SYSTEM.DIHEDRAL>
0.0101314

>  <SCORE.SYSTEM.VDW>
-0.275803

>  <SCORE.SYSTEM.norm>
-0.0169211

>  <SCORE.heavy>
16

>  <SCORE.norm>
-0.848012

>  <enum_code>
M

>  <enum_smi>
COc1c(Cl)cc(Cl)cc1-c1cc([NH3+])[nH+][nH]1

>  <sha256>
0220565b592d6bbf24b09234e18ce1e3bcd7b2483639a8f09b309f48b2132b18

>  <std_smi>
COc1c(Cl)cc(Cl)cc1-c1cc(N)n[nH]1

>  <uuid>
745bd83b-e33e-4629-9ea3-d49090f8b5d0

$$$$
745bd83b-e33e-4629-9ea3-d49090f8b5d0
  rDOCK(R)          3D
libRbt.so/2013.1/901 2013/11/27
 21 22  0  0  0  0  0  0  0  0999 V2000
   -5.2945   21.9376    3.4546 C   0  0  0  0  0  0
   -4.6104   23.1320    3.0472 O   0  0  0  0  0  0
   -3.4886   23.4021    3.7976 C   0  0  0  0  0  0
   -2.3033   22.6476    3.7232 C   0  0  0  0  0  0
   -2.0913   21.3568    2.5976 Cl  0  0  0  0  0  0
   -1.2124   22.9652    4.5360 C   0  0  0  0  0  0
   -1.2902   24.0503    5.4019 C   0  0  0  0  0  0
    0.0480   24.4462    6.4048 Cl  0  0  0  0  0  0
   -2.4350   24.8459    5.4496 C   0  0  0  0  0  0
   -3.5256   24.5362    4.6321 C   0  0  0  0  0  0
   -4.7839   25.4854    4.6272 C   0  0  0  0  0  0
   -5.9916   25.3923    3.7961 C   0  0  0  0  0  0
   -6.8927   26.4725    4.1785 C   0  0  0  0  0  0
   -8.2065   26.6860    3.5623 N   0  3  0  0  0  0
   -6.2884   27.2271    5.2120 N   0  3  0  0  0  0
   -4.9617   26.5973    5.4817 N   0  0  0  0  0  0
   -8.9745   26.5109    4.2311 H   0  0  0  0  0  0
   -8.3551   27.6536    3.2376 H   0  0  0  0  0  0
   -8.3985   26.0559    2.7691 H   0  0  0  0  0  0
   -6.6349   28.0431    5.7246 H   0  0  0  0  0  0
   -4.2745   26.8850    6.1937 H   0  0  0  0  0  0
  1  2  1  0  0  0
  2  3  1  0  0  0
  3  4  2  0  0  0
  4  5  1  0  0  0
  4  6  1  0  0  0
  6  7  2  0  0  0
  7  8  1  0  0  0
  7  9  1  0  0  0
  9 10  2  0  0  0
 10 11  1  0  0  0
 11 12  2  0  0  0
 12 13  1  0  0  0
 13 14  1  0  0  0
 13 15  2  0  0  0
 15 16  1  0  0  0
 10  3  1  0  0  0
 16 11  1  0  0  0
 14 17  1  0  0  0
 14 18  1  0  0  0
 14 19  1  0  0  0
 15 20  1  0  0  0
 16 21  1  0  0  0
M  END
>  <CHROM.0>
-59.88758699,68.18066772

>  <CHROM.1>
71.00194517,-2.47877832,112.77352726,-3.56911959,24.22494514,4.37449753,2.75155965
-0.37697209,0.62033913

>  <Name>
745bd83b-e33e-4629-9ea3-d49090f8b5d0

>  <RI>
2.77148e+07

>  <Rbt.Current_Directory>
/data/work/jku/5V6S/work/40/8dba899c20c42488f2b1a17844994e

>  <Rbt.Executable>
rbdock ($Id: //depot/dev/client3/rdock/2013.1/src/exe/rbdock.cxx#4 $)

>  <Rbt.Library>
libRbt.so (2013.1, Build901 2013/11/27)

>  <Rbt.Parameter_File>
/rDock_2013.1_src/data/scripts/dock.prm

>  <Rbt.Receptor>
docking.prm

>  <SCORE>
-16.4721

>  <SCORE.INTER>
-16.2647

>  <SCORE.INTER.CONST>
1

>  <SCORE.INTER.POLAR>
-1.13563

>  <SCORE.INTER.REPUL>
0

>  <SCORE.INTER.ROT>
2

>  <SCORE.INTER.VDW>
-19.8036

>  <SCORE.INTER.norm>
-1.01655

>  <SCORE.INTRA>
1.20688

>  <SCORE.INTRA.DIHEDRAL>
0.829328

>  <SCORE.INTRA.DIHEDRAL.0>
4.63917

>  <SCORE.INTRA.POLAR>
0.372441

>  <SCORE.INTRA.POLAR.0>
-0.372441

>  <SCORE.INTRA.REPUL>
0

>  <SCORE.INTRA.REPUL.0>
0

>  <SCORE.INTRA.VDW>
-0.474083

>  <SCORE.INTRA.VDW.0>
-0.0923825

>  <SCORE.INTRA.norm>
0.0754301

>  <SCORE.RESTR>
0.0969134

>  <SCORE.RESTR.CAVITY>
0.0969134

>  <SCORE.RESTR.norm>
0.00605709

>  <SCORE.SYSTEM>
-1.51114

>  <SCORE.SYSTEM.CONST>
0

>  <SCORE.SYSTEM.DIHEDRAL>
0.332866

>  <SCORE.SYSTEM.POLAR>
-0.502212

>  <SCORE.SYSTEM.VDW>
0.0299487

>  <SCORE.SYSTEM.norm>
-0.0944461

>  <SCORE.heavy>
16

>  <SCORE.norm>
-1.02951

>  <enum_code>
M

>  <enum_smi>
COc1c(Cl)cc(Cl)cc1-c1cc([NH3+])[nH+][nH]1

>  <sha256>
0220565b592d6bbf24b09234e18ce1e3bcd7b2483639a8f09b309f48b2132b18

>  <std_smi>
COc1c(Cl)cc(Cl)cc1-c1cc(N)n[nH]1

>  <uuid>
745bd83b-e33e-4629-9ea3-d49090f8b5d0

$$$$
745bd83b-e33e-4629-9ea3-d49090f8b5d0
  rDOCK(R)          3D
libRbt.so/2013.1/901 2013/11/27
 21 22  0  0  0  0  0  0  0  0999 V2000
   -3.0006   28.0686    4.7412 C   0  0  0  0  0  0
   -3.8237   27.1594    5.4872 O   0  0  0  0  0  0
   -3.5369   25.8359    5.2420 C   0  0  0  0  0  0
   -2.3744   25.1933    5.7062 C   0  0  0  0  0  0
   -1.2255   25.9744    6.7299 Cl  0  0  0  0  0  0
   -2.1372   23.8522    5.3951 C   0  0  0  0  0  0
   -3.0697   23.1424    4.6467 C   0  0  0  0  0  0
   -2.7840   21.4924    4.2602 Cl  0  0  0  0  0  0
   -4.2555   23.7444    4.2255 C   0  0  0  0  0  0
   -4.5001   25.0837    4.5416 C   0  0  0  0  0  0
   -5.8768   25.7359    4.1371 C   0  0  0  0  0  0
   -6.4214   27.0386    4.5423 C   0  0  0  0  0  0
   -7.7086   27.2200    3.8826 C   0  0  0  0  0  0
   -8.5402   28.4169    4.0473 N   0  3  0  0  0  0
   -7.9786   26.0811    3.0871 N   0  3  0  0  0  0
   -6.8202   25.1548    3.2592 N   0  0  0  0  0  0
   -8.8316   28.8073    3.1361 H   0  0  0  0  0  0
   -9.4219   28.2377    4.5516 H   0  0  0  0  0  0
   -8.0578   29.1930    4.5248 H   0  0  0  0  0  0
   -8.7782   25.8707    2.4830 H   0  0  0  0  0  0
   -6.6851   24.2425    2.7996 H   0  0  0  0  0  0
  1  2  1  0  0  0
  2  3  1  0  0  0
  3  4  2  0  0  0
  4  5  1  0  0  0
  4  6  1  0  0  0
  6  7  2  0  0  0
  7  8  1  0  0  0
  7  9  1  0  0  0
  9 10  2  0  0  0
 10 11  1  0  0  0
 11 12  2  0  0  0
 12 13  1  0  0  0
 13 14  1  0  0  0
 13 15  2  0  0  0
 15 16  1  0  0  0
 10  3  1  0  0  0
 16 11  1  0  0  0
 14 17  1  0  0  0
 14 18  1  0  0  0
 14 19  1  0  0  0
 15 20  1  0  0  0
 16 21  1  0  0  0
M  END
>  <CHROM.0>
-59.88758699,69.11727687

>  <CHROM.1>
72.31361019,-8.85417421,129.34592662,-4.26481061,25.34329889,4.74580423,-2.69090336
0.42331891,-2.85609345

>  <Name>
745bd83b-e33e-4629-9ea3-d49090f8b5d0

>  <RI>
2.77148e+07

>  <Rbt.Current_Directory>
/data/work/jku/5V6S/work/40/8dba899c20c42488f2b1a17844994e

>  <Rbt.Executable>
rbdock ($Id: //depot/dev/client3/rdock/2013.1/src/exe/rbdock.cxx#4 $)

>  <Rbt.Library>
libRbt.so (2013.1, Build901 2013/11/27)

>  <Rbt.Parameter_File>
/rDock_2013.1_src/data/scripts/dock.prm

>  <Rbt.Receptor>
docking.prm

>  <SCORE>
-16.869

>  <SCORE.INTER>
-16.6829

>  <SCORE.INTER.CONST>
1

>  <SCORE.INTER.POLAR>
-1.54616

>  <SCORE.INTER.REPUL>
0

>  <SCORE.INTER.ROT>
2

>  <SCORE.INTER.VDW>
-18.826

>  <SCORE.INTER.norm>
-1.04268

>  <SCORE.INTRA>
1.32743

>  <SCORE.INTRA.DIHEDRAL>
1.26831

>  <SCORE.INTRA.DIHEDRAL.0>
4.63917

>  <SCORE.INTRA.POLAR>
0.372441

>  <SCORE.INTRA.POLAR.0>
-0.372441

>  <SCORE.INTRA.REPUL>
0

>  <SCORE.INTRA.REPUL.0>
0

>  <SCORE.INTRA.VDW>
-0.573028

>  <SCORE.INTRA.VDW.0>
-0.0923825

>  <SCORE.INTRA.norm>
0.0829643

>  <SCORE.RESTR>
0

>  <SCORE.RESTR.CAVITY>
0

>  <SCORE.RESTR.norm>
0

>  <SCORE.SYSTEM>
-1.51347

>  <SCORE.SYSTEM.CONST>
0

>  <SCORE.SYSTEM.DIHEDRAL>
0.410104

>  <SCORE.SYSTEM.POLAR>
-0.503052

>  <SCORE.SYSTEM.VDW>
-0.00814069

>  <SCORE.SYSTEM.norm>
-0.0945916

>  <SCORE.heavy>
16

>  <SCORE.norm>
-1.05431

>  <enum_code>
M

>  <enum_smi>
COc1c(Cl)cc(Cl)cc1-c1cc([NH3+])[nH+][nH]1

>  <sha256>
0220565b592d6bbf24b09234e18ce1e3bcd7b2483639a8f09b309f48b2132b18

>  <std_smi>
COc1c(Cl)cc(Cl)cc1-c1cc(N)n[nH]1

>  <uuid>
745bd83b-e33e-4629-9ea3-d49090f8b5d0

$$$$
745bd83b-e33e-4629-9ea3-d49090f8b5d0
  rDOCK(R)          3D
libRbt.so/2013.1/901 2013/11/27
 21 22  0  0  0  0  0  0  0  0999 V2000
   -1.1964   28.1660    1.6437 C   0  0  0  0  0  0
   -0.8282   28.6738    2.9349 O   0  0  0  0  0  0
   -1.8993   28.8362    3.7839 C   0  0  0  0  0  0
   -2.4480   27.7926    4.5516 C   0  0  0  0  0  0
   -1.7650   26.2082    4.5909 Cl  0  0  0  0  0  0
   -3.5538   28.0264    5.3726 C   0  0  0  0  0  0
   -4.0961   29.3043    5.4518 C   0  0  0  0  0  0
   -5.4566   29.5988    6.4596 Cl  0  0  0  0  0  0
   -3.5319   30.3652    4.7433 C   0  0  0  0  0  0
   -2.4205   30.1369    3.9271 C   0  0  0  0  0  0
   -1.7349   31.3525    3.1945 C   0  0  0  0  0  0
   -0.8656   31.3296    2.0106 C   0  0  0  0  0  0
   -0.5071   32.7037    1.6814 C   0  0  0  0  0  0
    0.3478   33.0666    0.5462 N   0  3  0  0  0  0
   -1.1209   33.5721    2.6151 N   0  3  0  0  0  0
   -1.8870   32.7088    3.5625 N   0  0  0  0  0  0
   -0.1580   32.9908   -0.3517 H   0  0  0  0  0  0
    0.6819   34.0418    0.5793 H   0  0  0  0  0  0
    1.1717   32.4563    0.4372 H   0  0  0  0  0  0
   -1.0979   34.5936    2.6828 H   0  0  0  0  0  0
   -2.4703   33.0237    4.3515 H   0  0  0  0  0  0
  1  2  1  0  0  0
  2  3  1  0  0  0
  3  4  2  0  0  0
  4  5  1  0  0  0
  4  6  1  0  0  0
  6  7  2  0  0  0
  7  8  1  0  0  0
  7  9  1  0  0  0
  9 10  2  0  0  0
 10 11  1  0  0  0
 11 12  2  0  0  0
 12 13  1  0  0  0
 13 14  1  0  0  0
 13 15  2  0  0  0
 15 16  1  0  0  0
 10  3  1  0  0  0
 16 11  1  0  0  0
 14 17  1  0  0  0
 14 18  1  0  0  0
 14 19  1  0  0  0
 15 20  1  0  0  0
 16 21  1  0  0  0
M  END
>  <CHROM.0>
-59.88758699,69.15761745

>  <CHROM.1>
83.17245235,22.13270048,75.30084941,-2.25794444,29.80244172,3.82352223,-0.88861244
-0.73433986,2.95373178

>  <Name>
745bd83b-e33e-4629-9ea3-d49090f8b5d0

>  <RI>
2.77148e+07

>  <Rbt.Current_Directory>
/data/work/jku/5V6S/work/40/8dba899c20c42488f2b1a17844994e

>  <Rbt.Executable>
rbdock ($Id: //depot/dev/client3/rdock/2013.1/src/exe/rbdock.cxx#4 $)

>  <Rbt.Library>
libRbt.so (2013.1, Build901 2013/11/27)

>  <Rbt.Parameter_File>
/rDock_2013.1_src/data/scripts/dock.prm

>  <Rbt.Receptor>
docking.prm

>  <SCORE>
-14.5783

>  <SCORE.INTER>
-15.0763

>  <SCORE.INTER.CONST>
1

>  <SCORE.INTER.POLAR>
-1.30402

>  <SCORE.INTER.REPUL>
0

>  <SCORE.INTER.ROT>
2

>  <SCORE.INTER.VDW>
-18.0426

>  <SCORE.INTER.norm>
-0.942267

>  <SCORE.INTRA>
2.01134

>  <SCORE.INTRA.DIHEDRAL>
2.82573

>  <SCORE.INTRA.DIHEDRAL.0>
4.63917

>  <SCORE.INTRA.POLAR>
0.372441

>  <SCORE.INTRA.POLAR.0>
-0.372441

>  <SCORE.INTRA.REPUL>
0

>  <SCORE.INTRA.REPUL.0>
0

>  <SCORE.INTRA.VDW>
-0.667823

>  <SCORE.INTRA.VDW.0>
-0.0923825

>  <SCORE.INTRA.norm>
0.125709

>  <SCORE.RESTR>
0

>  <SCORE.RESTR.CAVITY>
0

>  <SCORE.RESTR.norm>
0

>  <SCORE.SYSTEM>
-1.51338

>  <SCORE.SYSTEM.CONST>
0

>  <SCORE.SYSTEM.DIHEDRAL>
0.413605

>  <SCORE.SYSTEM.POLAR>
-0.503072

>  <SCORE.SYSTEM.VDW>
-0.00973592

>  <SCORE.SYSTEM.norm>
-0.0945862

>  <SCORE.heavy>
16

>  <SCORE.norm>
-0.911144

>  <enum_code>
M

>  <enum_smi>
COc1c(Cl)cc(Cl)cc1-c1cc([NH3+])[nH+][nH]1

>  <sha256>
0220565b592d6bbf24b09234e18ce1e3bcd7b2483639a8f09b309f48b2132b18

>  <std_smi>
COc1c(Cl)cc(Cl)cc1-c1cc(N)n[nH]1

>  <uuid>
745bd83b-e33e-4629-9ea3-d49090f8b5d0

$$$$
b12355f7-b617-4007-8a3f-2934ff5c7096
  rDOCK(R)          3D
libRbt.so/2013.1/901 2013/11/27
 20 21  0  0  0  0  0  0  0  0999 V2000
   -3.3356   22.0360    4.5340 C   0  0  0  0  0  0
   -3.0385   23.1648    3.7009 O   0  0  0  0  0  0
   -2.6240   24.2336    4.4663 C   0  0  0  0  0  0
   -1.2953   24.3125    4.9207 C   0  0  0  0  0  0
   -0.1205   23.1162    4.5080 Cl  0  0  0  0  0  0
   -0.8820   25.3908    5.7000 C   0  0  0  0  0  0
   -1.7887   26.3998    6.0021 C   0  0  0  0  0  0
   -1.2899   27.7365    6.9631 Cl  0  0  0  0  0  0
   -3.0981   26.3560    5.5162 C   0  0  0  0  0  0
   -3.5347   25.2823    4.7245 C   0  0  0  0  0  0
   -4.8993   25.2995    4.1730 C   0  0  0  0  0  0
   -5.9691   26.1619    4.3610 C   0  0  0  0  0  0
   -6.9729   25.6579    3.5333 C   0  0  0  0  0  0
   -8.2918   26.1710    3.3419 N   0  3  0  0  0  0
   -6.6270   24.5785    2.8606 N   0  0  0  0  0  0
   -5.3502   24.3741    3.2525 N   0  0  0  0  0  0
   -8.9240   25.9172    4.1042 H   0  0  0  0  0  0
   -8.2987   27.1844    3.2051 H   0  0  0  0  0  0
   -8.6573   25.7431    2.4826 H   0  0  0  0  0  0
   -4.8269   23.5835    2.8756 H   0  0  0  0  0  0
  1  2  1  0  0  0
  2  3  1  0  0  0
  3  4  2  0  0  0
  4  5  1  0  0  0
  4  6  1  0  0  0
  6  7  2  0  0  0
  7  8  1  0  0  0
  7  9  1  0  0  0
  9 10  2  0  0  0
 10 11  1  0  0  0
 11 12  2  0  0  0
 12 13  1  0  0  0
 13 14  1  0  0  0
 13 15  2  0  0  0
 15 16  1  0  0  0
 10  3  1  0  0  0
 16 11  1  0  0  0
 14 17  1  0  0  0
 14 18  1  0  0  0
 14 19  1  0  0  0
 16 20  1  0  0  0
M  END
>  <CHROM.0>
-59.88758699,69.81003628

>  <CHROM.1>
81.06680812,175.14095378,-78.74617654,-3.26790775,25.04859993,4.69370544
-3.01488062,-0.32335665,0.47866845

>  <Name>
b12355f7-b617-4007-8a3f-2934ff5c7096

>  <RI>
4.20017e+07

>  <Rbt.Current_Directory>
/data/work/jku/5V6S/work/40/8dba899c20c42488f2b1a17844994e

>  <Rbt.Executable>
rbdock ($Id: //depot/dev/client3/rdock/2013.1/src/exe/rbdock.cxx#4 $)

>  <Rbt.Library>
libRbt.so (2013.1, Build901 2013/11/27)

>  <Rbt.Parameter_File>
/rDock_2013.1_src/data/scripts/dock.prm

>  <Rbt.Receptor>
docking.prm

>  <SCORE>
-15.1357

>  <SCORE.INTER>
-12.7999

>  <SCORE.INTER.CONST>
1

>  <SCORE.INTER.POLAR>
-1.20257

>  <SCORE.INTER.REPUL>
0.503927

>  <SCORE.INTER.ROT>
2

>  <SCORE.INTER.VDW>
-18.6308

>  <SCORE.INTER.norm>
-0.799996

>  <SCORE.INTRA>
-0.825868

>  <SCORE.INTRA.DIHEDRAL>
-1.60443

>  <SCORE.INTRA.DIHEDRAL.0>
7.61639

>  <SCORE.INTRA.POLAR>
-0.130175

>  <SCORE.INTRA.POLAR.0>
-0.213464

>  <SCORE.INTRA.REPUL>
0

>  <SCORE.INTRA.REPUL.0>
0

>  <SCORE.INTRA.VDW>
0.418945

>  <SCORE.INTRA.VDW.0>
-1.1847

>  <SCORE.INTRA.norm>
-0.0516167

>  <SCORE.RESTR>
0

>  <SCORE.RESTR.CAVITY>
0

>  <SCORE.RESTR.norm>
0

>  <SCORE.SYSTEM>
-1.50987

>  <SCORE.SYSTEM.CONST>
0

>  <SCORE.SYSTEM.DIHEDRAL>
0.472191

>  <SCORE.SYSTEM.POLAR>
-0.503217

>  <SCORE.SYSTEM.VDW>
-0.0350266

>  <SCORE.SYSTEM.norm>
-0.0943669

>  <SCORE.heavy>
16

>  <SCORE.norm>
-0.94598

>  <enum_code>
M

>  <enum_smi>
COc1c(Cl)cc(Cl)cc1-c1cc([NH3+])n[nH]1

>  <sha256>
0220565b592d6bbf24b09234e18ce1e3bcd7b2483639a8f09b309f48b2132b18

>  <std_smi>
COc1c(Cl)cc(Cl)cc1-c1cc(N)n[nH]1

>  <uuid>
b12355f7-b617-4007-8a3f-2934ff5c7096

$$$$
b12355f7-b617-4007-8a3f-2934ff5c7096
  rDOCK(R)          3D
libRbt.so/2013.1/901 2013/11/27
 20 21  0  0  0  0  0  0  0  0999 V2000
   -3.1145   32.9151    3.3813 C   0  0  0  0  0  0
   -3.2520   31.9922    2.2923 O   0  0  0  0  0  0
   -2.7620   30.7531    2.6452 C   0  0  0  0  0  0
   -3.5439   29.8681    3.4090 C   0  0  0  0  0  0
   -5.1528   30.2640    3.8952 Cl  0  0  0  0  0  0
   -3.0424   28.6194    3.7695 C   0  0  0  0  0  0
   -1.7723   28.2473    3.3454 C   0  0  0  0  0  0
   -1.1424   26.7077    3.7840 Cl  0  0  0  0  0  0
   -1.0053   29.0990    2.5462 C   0  0  0  0  0  0
   -1.4926   30.3591    2.1659 C   0  0  0  0  0  0
   -0.6881   31.2041    1.2685 C   0  0  0  0  0  0
    0.5716   31.0371    0.7128 C   0  0  0  0  0  0
    0.7587   32.1736   -0.0746 C   0  0  0  0  0  0
    1.8938   32.5098   -0.8734 N   0  3  0  0  0  0
   -0.2548   33.0159   -0.0569 N   0  0  0  0  0  0
   -1.1405   32.4063    0.7612 N   0  0  0  0  0  0
    2.1664   33.4900   -0.7716 H   0  0  0  0  0  0
    2.6952   31.9031   -0.6854 H   0  0  0  0  0  0
    1.6231   32.3652   -1.8536 H   0  0  0  0  0  0
   -2.0375   32.8518    0.9558 H   0  0  0  0  0  0
  1  2  1  0  0  0
  2  3  1  0  0  0
  3  4  2  0  0  0
  4  5  1  0  0  0
  4  6  1  0  0  0
  6  7  2  0  0  0
  7  8  1  0  0  0
  7  9  1  0  0  0
  9 10  2  0  0  0
 10 11  1  0  0  0
 11 12  2  0  0  0
 12 13  1  0  0  0
 13 14  1  0  0  0
 13 15  2  0  0  0
 15 16  1  0  0  0
 10  3  1  0  0  0
 16 11  1  0  0  0
 14 17  1  0  0  0
 14 18  1  0  0  0
 14 19  1  0  0  0
 16 20  1  0  0  0
M  END
>  <CHROM.0>
-59.88758699,69.76029868

>  <CHROM.1>
80.61453772,178.17293268,-136.13329433,-1.81361691,30.40610984,2.31469783
0.85350893,0.48092014,-0.43297841

>  <Name>
b12355f7-b617-4007-8a3f-2934ff5c7096

>  <RI>
4.20017e+07

>  <Rbt.Current_Directory>
/data/work/jku/5V6S/work/40/8dba899c20c42488f2b1a17844994e

>  <Rbt.Executable>
rbdock ($Id: //depot/dev/client3/rdock/2013.1/src/exe/rbdock.cxx#4 $)

>  <Rbt.Library>
libRbt.so (2013.1, Build901 2013/11/27)

>  <Rbt.Parameter_File>
/rDock_2013.1_src/data/scripts/dock.prm

>  <Rbt.Receptor>
docking.prm

>  <SCORE>
-15.532

>  <SCORE.INTER>
-13.3421

>  <SCORE.INTER.CONST>
1

>  <SCORE.INTER.POLAR>
-1.62938

>  <SCORE.INTER.REPUL>
0

>  <SCORE.INTER.ROT>
2

>  <SCORE.INTER.VDW>
-15.2022

>  <SCORE.INTER.norm>
-0.833879

>  <SCORE.INTRA>
-0.679695

>  <SCORE.INTRA.DIHEDRAL>
-1.74286

>  <SCORE.INTRA.DIHEDRAL.0>
7.61639

>  <SCORE.INTRA.POLAR>
-0.120969

>  <SCORE.INTRA.POLAR.0>
-0.213464

>  <SCORE.INTRA.REPUL>
0

>  <SCORE.INTRA.REPUL.0>
0

>  <SCORE.INTRA.VDW>
0.60303

>  <SCORE.INTRA.VDW.0>
-1.1847

>  <SCORE.INTRA.norm>
-0.042481

>  <SCORE.RESTR>
0

>  <SCORE.RESTR.CAVITY>
0

>  <SCORE.RESTR.norm>
0

>  <SCORE.SYSTEM>
-1.51028

>  <SCORE.SYSTEM.CONST>
0

>  <SCORE.SYSTEM.DIHEDRAL>
0.467595

>  <SCORE.SYSTEM.POLAR>
-0.503218

>  <SCORE.SYSTEM.VDW>
-0.033132

>  <SCORE.SYSTEM.norm>
-0.0943923

>  <SCORE.heavy>
16

>  <SCORE.norm>
-0.970753

>  <enum_code>
M

>  <enum_smi>
COc1c(Cl)cc(Cl)cc1-c1cc([NH3+])n[nH]1

>  <sha256>
0220565b592d6bbf24b09234e18ce1e3bcd7b2483639a8f09b309f48b2132b18

>  <std_smi>
COc1c(Cl)cc(Cl)cc1-c1cc(N)n[nH]1

>  <uuid>
b12355f7-b617-4007-8a3f-2934ff5c7096

$$$$
b12355f7-b617-4007-8a3f-2934ff5c7096
  rDOCK(R)          3D
libRbt.so/2013.1/901 2013/11/27
 20 21  0  0  0  0  0  0  0  0999 V2000
   -3.9949   29.2956    3.9536 C   0  0  0  0  0  0
   -4.3771   28.7171    5.2089 O   0  0  0  0  0  0
   -3.4965   27.7195    5.5685 C   0  0  0  0  0  0
   -2.2752   28.0363    6.1900 C   0  0  0  0  0  0
   -1.8448   29.6642    6.5725 Cl  0  0  0  0  0  0
   -1.3847   27.0257    6.5455 C   0  0  0  0  0  0
   -1.7265   25.7005    6.3032 C   0  0  0  0  0  0
   -0.6353   24.4439    6.7382 Cl  0  0  0  0  0  0
   -2.9576   25.3710    5.7300 C   0  0  0  0  0  0
   -3.8727   26.3723    5.3693 C   0  0  0  0  0  0
   -5.1875   25.9890    4.8301 C   0  0  0  0  0  0
   -6.3170   26.7297    4.5152 C   0  0  0  0  0  0
   -7.2206   25.7918    4.0145 C   0  0  0  0  0  0
   -8.5474   26.0197    3.5382 N   0  3  0  0  0  0
   -6.7602   24.5570    3.9914 N   0  0  0  0  0  0
   -5.5091   24.6914    4.4837 N   0  0  0  0  0  0
   -9.2582   25.6261    4.1588 H   0  0  0  0  0  0
   -8.7370   27.0111    3.3746 H   0  0  0  0  0  0
   -8.6271   25.5391    2.6339 H   0  0  0  0  0  0
   -4.9124   23.8691    4.5775 H   0  0  0  0  0  0
  1  2  1  0  0  0
  2  3  1  0  0  0
  3  4  2  0  0  0
  4  5  1  0  0  0
  4  6  1  0  0  0
  6  7  2  0  0  0
  7  8  1  0  0  0
  7  9  1  0  0  0
  9 10  2  0  0  0
 10 11  1  0  0  0
 11 12  2  0  0  0
 12 13  1  0  0  0
 13 14  1  0  0  0
 13 15  2  0  0  0
 15 16  1  0  0  0
 10  3  1  0  0  0
 16 11  1  0  0  0
 14 17  1  0  0  0
 14 18  1  0  0  0
 14 19  1  0  0  0
 16 20  1  0  0  0
M  END
>  <CHROM.0>
-59.88758699,69.14514521

>  <CHROM.1>
81.95258153,-5.67450142,-110.59987684,-3.72717976,26.71606297,5.41873301
2.94762148,0.42307502,3.13278080

>  <Name>
b12355f7-b617-4007-8a3f-2934ff5c7096

>  <RI>
4.20017e+07

>  <Rbt.Current_Directory>
/data/work/jku/5V6S/work/40/8dba899c20c42488f2b1a17844994e

>  <Rbt.Executable>
rbdock ($Id: //depot/dev/client3/rdock/2013.1/src/exe/rbdock.cxx#4 $)

>  <Rbt.Library>
libRbt.so (2013.1, Build901 2013/11/27)

>  <Rbt.Parameter_File>
/rDock_2013.1_src/data/scripts/dock.prm

>  <Rbt.Receptor>
docking.prm

>  <SCORE>
-13.6427

>  <SCORE.INTER>
-12.7573

>  <SCORE.INTER.CONST>
1

>  <SCORE.INTER.POLAR>
-0.747199

>  <SCORE.INTER.REPUL>
0.00560135

>  <SCORE.INTER.ROT>
2

>  <SCORE.INTER.VDW>
-17.6448

>  <SCORE.INTER.norm>
-0.79733

>  <SCORE.INTRA>
0.388775

>  <SCORE.INTRA.DIHEDRAL>
-1.5348

>  <SCORE.INTRA.DIHEDRAL.0>
7.61639

>  <SCORE.INTRA.POLAR>
0.213464

>  <SCORE.INTRA.POLAR.0>
-0.213464

>  <SCORE.INTRA.REPUL>
0

>  <SCORE.INTRA.REPUL.0>
0

>  <SCORE.INTRA.VDW>
0.430398

>  <SCORE.INTRA.VDW.0>
-1.1847

>  <SCORE.INTRA.norm>
0.0242985

>  <SCORE.RESTR>
0.239175

>  <SCORE.RESTR.CAVITY>
0.239175

>  <SCORE.RESTR.norm>
0.0149485

>  <SCORE.SYSTEM>
-1.51341

>  <SCORE.SYSTEM.CONST>
0

>  <SCORE.SYSTEM.DIHEDRAL>
0.412521

>  <SCORE.SYSTEM.POLAR>
-0.503066

>  <SCORE.SYSTEM.VDW>
-0.00924311

>  <SCORE.SYSTEM.norm>
-0.094588

>  <SCORE.heavy>
16

>  <SCORE.norm>
-0.852671

>  <enum_code>
M

>  <enum_smi>
COc1c(Cl)cc(Cl)cc1-c1cc([NH3+])n[nH]1

>  <sha256>
0220565b592d6bbf24b09234e18ce1e3bcd7b2483639a8f09b309f48b2132b18

>  <std_smi>
COc1c(Cl)cc(Cl)cc1-c1cc(N)n[nH]1

>  <uuid>
b12355f7-b617-4007-8a3f-2934ff5c7096

$$$$
b12355f7-b617-4007-8a3f-2934ff5c7096
  rDOCK(R)          3D
libRbt.so/2013.1/901 2013/11/27
 20 21  0  0  0  0  0  0  0  0999 V2000
   -1.9996   24.3121    5.0338 C   0  0  0  0  0  0
   -3.3241   24.1902    5.5698 O   0  0  0  0  0  0
   -4.2400   24.0071    4.5561 C   0  0  0  0  0  0
   -4.4019   22.7431    3.9609 C   0  0  0  0  0  0
   -3.5091   21.3652    4.4954 Cl  0  0  0  0  0  0
   -5.3237   22.5639    2.9318 C   0  0  0  0  0  0
   -6.0991   23.6401    2.5170 C   0  0  0  0  0  0
   -7.2409   23.4309    1.2475 Cl  0  0  0  0  0  0
   -5.9807   24.8886    3.1332 C   0  0  0  0  0  0
   -5.0630   25.0907    4.1758 C   0  0  0  0  0  0
   -5.0105   26.3989    4.8485 C   0  0  0  0  0  0
   -5.9977   27.3120    5.1879 C   0  0  0  0  0  0
   -5.3133   28.3402    5.8369 C   0  0  0  0  0  0
   -5.8546   29.5376    6.3960 N   0  3  0  0  0  0
   -4.0124   28.1495    5.9285 N   0  0  0  0  0  0
   -3.8394   26.9512    5.3287 N   0  0  0  0  0  0
   -5.1657   30.2915    6.4460 H   0  0  0  0  0  0
   -6.6874   29.8581    5.8968 H   0  0  0  0  0  0
   -6.1398   29.3162    7.3577 H   0  0  0  0  0  0
   -2.9029   26.5524    5.2582 H   0  0  0  0  0  0
  1  2  1  0  0  0
  2  3  1  0  0  0
  3  4  2  0  0  0
  4  5  1  0  0  0
  4  6  1  0  0  0
  6  7  2  0  0  0
  7  8  1  0  0  0
  7  9  1  0  0  0
  9 10  2  0  0  0
 10 11  1  0  0  0
 11 12  2  0  0  0
 12 13  1  0  0  0
 13 14  1  0  0  0
 13 15  2  0  0  0
 15 16  1  0  0  0
 10  3  1  0  0  0
 16 11  1  0  0  0
 14 17  1  0  0  0
 14 18  1  0  0  0
 14 19  1  0  0  0
 16 20  1  0  0  0
M  END
>  <CHROM.0>
-59.88758699,68.69987956

>  <CHROM.1>
79.08528141,-142.05081792,-155.17256935,-4.88018823,24.77975706,4.23884650
-1.53963846,0.66490701,-2.70472363

>  <Name>
b12355f7-b617-4007-8a3f-2934ff5c7096

>  <RI>
4.20017e+07

>  <Rbt.Current_Directory>
/data/work/jku/5V6S/work/40/8dba899c20c42488f2b1a17844994e

>  <Rbt.Executable>
rbdock ($Id: //depot/dev/client3/rdock/2013.1/src/exe/rbdock.cxx#4 $)

>  <Rbt.Library>
libRbt.so (2013.1, Build901 2013/11/27)

>  <Rbt.Parameter_File>
/rDock_2013.1_src/data/scripts/dock.prm

>  <Rbt.Receptor>
docking.prm

>  <SCORE>
-11.6249

>  <SCORE.INTER>
-13.4233

>  <SCORE.INTER.CONST>
1

>  <SCORE.INTER.POLAR>
-1.25654

>  <SCORE.INTER.REPUL>
0

>  <SCORE.INTER.ROT>
2

>  <SCORE.INTER.VDW>
-16.5511

>  <SCORE.INTER.norm>
-0.838958

>  <SCORE.INTRA>
3.31185

>  <SCORE.INTRA.DIHEDRAL>
2.60744

>  <SCORE.INTRA.DIHEDRAL.0>
7.61639

>  <SCORE.INTRA.POLAR>
0.212824

>  <SCORE.INTRA.POLAR.0>
-0.213464

>  <SCORE.INTRA.REPUL>
0

>  <SCORE.INTRA.REPUL.0>
0

>  <SCORE.INTRA.VDW>
1.28453

>  <SCORE.INTRA.VDW.0>
-1.1847

>  <SCORE.INTRA.norm>
0.20699

>  <SCORE.RESTR>
0

>  <SCORE.RESTR.CAVITY>
0

>  <SCORE.RESTR.norm>
0

>  <SCORE.SYSTEM>
-1.51346

>  <SCORE.SYSTEM.CONST>
0

>  <SCORE.SYSTEM.DIHEDRAL>
0.374722

>  <SCORE.SYSTEM.POLAR>
-0.502766

>  <SCORE.SYSTEM.VDW>
0.00858316

>  <SCORE.SYSTEM.norm>
-0.0945912

>  <SCORE.heavy>
16

>  <SCORE.norm>
-0.726559

>  <enum_code>
M

>  <enum_smi>
COc1c(Cl)cc(Cl)cc1-c1cc([NH3+])n[nH]1

>  <sha256>
0220565b592d6bbf24b09234e18ce1e3bcd7b2483639a8f09b309f48b2132b18

>  <std_smi>
COc1c(Cl)cc(Cl)cc1-c1cc(N)n[nH]1

>  <uuid>
b12355f7-b617-4007-8a3f-2934ff5c7096

$$$$
b12355f7-b617-4007-8a3f-2934ff5c7096
  rDOCK(R)          3D
libRbt.so/2013.1/901 2013/11/27
 20 21  0  0  0  0  0  0  0  0999 V2000
   -4.9455   21.9754    2.8114 C   0  0  0  0  0  0
   -4.6761   22.3690    4.1638 O   0  0  0  0  0  0
   -3.4737   23.0384    4.2411 C   0  0  0  0  0  0
   -2.2604   22.3271    4.2453 C   0  0  0  0  0  0
   -2.2144   20.6065    4.1067 Cl  0  0  0  0  0  0
   -1.0474   23.0070    4.3307 C   0  0  0  0  0  0
   -1.0476   24.3957    4.3858 C   0  0  0  0  0  0
    0.4439   25.2464    4.4909 Cl  0  0  0  0  0  0
   -2.2444   25.1150    4.3342 C   0  0  0  0  0  0
   -3.4778   24.4513    4.2422 C   0  0  0  0  0  0
   -4.7151   25.2394    4.1220 C   0  0  0  0  0  0
   -6.0538   24.8770    4.1206 C   0  0  0  0  0  0
   -6.7419   26.0854    4.0065 C   0  0  0  0  0  0
   -8.1547   26.2890    3.9593 N   0  3  0  0  0  0
   -5.9629   27.1463    3.9378 N   0  0  0  0  0  0
   -4.7226   26.6166    4.0204 N   0  0  0  0  0  0
   -8.6232   25.9753    4.8122 H   0  0  0  0  0  0
   -8.4010   27.2619    3.7633 H   0  0  0  0  0  0
   -8.5131   25.7196    3.1832 H   0  0  0  0  0  0
   -3.9084   27.2308    3.9914 H   0  0  0  0  0  0
  1  2  1  0  0  0
  2  3  1  0  0  0
  3  4  2  0  0  0
  4  5  1  0  0  0
  4  6  1  0  0  0
  6  7  2  0  0  0
  7  8  1  0  0  0
  7  9  1  0  0  0
  9 10  2  0  0  0
 10 11  1  0  0  0
 11 12  2  0  0  0
 12 13  1  0  0  0
 13 14  1  0  0  0
 13 15  2  0  0  0
 15 16  1  0  0  0
 10  3  1  0  0  0
 16 11  1  0  0  0
 14 17  1  0  0  0
 14 18  1  0  0  0
 14 19  1  0  0  0
 16 20  1  0  0  0
M  END
>  <CHROM.0>
-59.88758699,69.74106115

>  <CHROM.1>
-79.18689780,7.23554960,61.98069649,-3.42712826,24.08438747,4.11456777,2.64850498
-0.09857885,0.07062246

>  <Name>
b12355f7-b617-4007-8a3f-2934ff5c7096

>  <RI>
4.20017e+07

>  <Rbt.Current_Directory>
/data/work/jku/5V6S/work/40/8dba899c20c42488f2b1a17844994e

>  <Rbt.Executable>
rbdock ($Id: //depot/dev/client3/rdock/2013.1/src/exe/rbdock.cxx#4 $)

>  <Rbt.Library>
libRbt.so (2013.1, Build901 2013/11/27)

>  <Rbt.Parameter_File>
/rDock_2013.1_src/data/scripts/dock.prm

>  <Rbt.Receptor>
docking.prm

>  <SCORE>
-15.4467

>  <SCORE.INTER>
-14.5992

>  <SCORE.INTER.CONST>
1

>  <SCORE.INTER.POLAR>
-1.30349

>  <SCORE.INTER.REPUL>
0

>  <SCORE.INTER.ROT>
2

>  <SCORE.INTER.VDW>
-17.5673

>  <SCORE.INTER.norm>
-0.912448

>  <SCORE.INTRA>
0.613556

>  <SCORE.INTRA.DIHEDRAL>
-1.61922

>  <SCORE.INTRA.DIHEDRAL.0>
7.61639

>  <SCORE.INTRA.POLAR>
0.213464

>  <SCORE.INTRA.POLAR.0>
-0.213464

>  <SCORE.INTRA.REPUL>
0

>  <SCORE.INTRA.REPUL.0>
0

>  <SCORE.INTRA.VDW>
0.697388

>  <SCORE.INTRA.VDW.0>
-1.1847

>  <SCORE.INTRA.norm>
0.0383473

>  <SCORE.RESTR>
0.0493549

>  <SCORE.RESTR.CAVITY>
0.0493549

>  <SCORE.RESTR.norm>
0.00308468

>  <SCORE.SYSTEM>
-1.51043

>  <SCORE.SYSTEM.CONST>
0

>  <SCORE.SYSTEM.DIHEDRAL>
0.465823

>  <SCORE.SYSTEM.POLAR>
-0.503218

>  <SCORE.SYSTEM.VDW>
-0.0323978

>  <SCORE.SYSTEM.norm>
-0.0944018

>  <SCORE.heavy>
16

>  <SCORE.norm>
-0.965418

>  <enum_code>
M

>  <enum_smi>
COc1c(Cl)cc(Cl)cc1-c1cc([NH3+])n[nH]1

>  <sha256>
0220565b592d6bbf24b09234e18ce1e3bcd7b2483639a8f09b309f48b2132b18

>  <std_smi>
COc1c(Cl)cc(Cl)cc1-c1cc(N)n[nH]1

>  <uuid>
b12355f7-b617-4007-8a3f-2934ff5c7096

$$$$
c9011ee3-0d25-4598-b2a8-411da7dddd13
  rDOCK(R)          3D
libRbt.so/2013.1/901 2013/11/27
 19 20  0  0  0  0  0  0  0  0999 V2000
   -2.7464   22.3184    3.3385 C   0  0  0  0  0  0
   -3.4712   22.5240    4.5569 O   0  0  0  0  0  0
   -4.4285   23.4912    4.3695 C   0  0  0  0  0  0
   -5.6670   23.1387    3.8052 C   0  0  0  0  0  0
   -5.9894   21.5261    3.2675 Cl  0  0  0  0  0  0
   -6.6783   24.0883    3.6561 C   0  0  0  0  0  0
   -6.4508   25.3997    4.0601 C   0  0  0  0  0  0
   -7.7017   26.5688    3.8870 Cl  0  0  0  0  0  0
   -5.2163   25.7734    4.5833 C   0  0  0  0  0  0
   -4.1865   24.8280    4.7152 C   0  0  0  0  0  0
   -2.7817   25.3633    5.2341 C   0  0  0  0  0  0
   -1.6088   24.6428    5.3610 C   0  0  0  0  0  0
   -0.7756   25.6083    5.8060 C   0  0  0  0  0  0
    0.6048   25.5650    6.1124 N   0  3  0  0  0  0
   -1.3073   26.7967    5.9760 N   0  0  0  0  0  0
   -2.5827   26.6596    5.5852 N   0  5  0  0  0  0
    1.0058   25.6490    5.1688 H   0  0  0  0  0  0
    0.8783   24.6668    6.4978 H   0  0  0  0  0  0
    0.8990   26.3668    6.6597 H   0  0  0  0  0  0
  1  2  1  0  0  0
  2  3  1  0  0  0
  3  4  2  0  0  0
  4  5  1  0  0  0
  4  6  1  0  0  0
  6  7  2  0  0  0
  7  8  1  0  0  0
  7  9  1  0  0  0
  9 10  2  0  0  0
 10 11  1  0  0  0
 11 12  2  0  0  0
 12 13  1  0  0  0
 13 14  1  0  0  0
 13 15  2  0  0  0
 15 16  1  0  0  0
 10  3  1  0  0  0
 16 11  1  0  0  0
 14 17  1  0  0  0
 14 18  1  0  0  0
 14 19  1  0  0  0
M  END
>  <CHROM.0>
-59.88758699,69.01292169

>  <CHROM.1>
83.14723941,3.23014118,80.74338735,-4.23456722,24.52741825,4.47885813,-0.32902402
0.27175234,-2.87513806

>  <Name>
c9011ee3-0d25-4598-b2a8-411da7dddd13

>  <RI>
1.49476e+07

>  <Rbt.Current_Directory>
/data/work/jku/5V6S/work/40/8dba899c20c42488f2b1a17844994e

>  <Rbt.Executable>
rbdock ($Id: //depot/dev/client3/rdock/2013.1/src/exe/rbdock.cxx#4 $)

>  <Rbt.Library>
libRbt.so (2013.1, Build901 2013/11/27)

>  <Rbt.Parameter_File>
/rDock_2013.1_src/data/scripts/dock.prm

>  <Rbt.Receptor>
docking.prm

>  <SCORE>
-10.9509

>  <SCORE.INTER>
-9.7208

>  <SCORE.INTER.CONST>
1

>  <SCORE.INTER.POLAR>
0

>  <SCORE.INTER.REPUL>
0

>  <SCORE.INTER.ROT>
2

>  <SCORE.INTER.VDW>
-17.1208

>  <SCORE.INTER.norm>
-0.60755

>  <SCORE.INTRA>
0.283534

>  <SCORE.INTRA.DIHEDRAL>
-0.309893

>  <SCORE.INTRA.DIHEDRAL.0>
6.26161

>  <SCORE.INTRA.POLAR>
0

>  <SCORE.INTRA.POLAR.0>
0

>  <SCORE.INTRA.REPUL>
0

>  <SCORE.INTRA.REPUL.0>
0

>  <SCORE.INTRA.VDW>
0.438481

>  <SCORE.INTRA.VDW.0>
-0.959336

>  <SCORE.INTRA.norm>
0.0177209

>  <SCORE.RESTR>
0

>  <SCORE.RESTR.CAVITY>
0

>  <SCORE.RESTR.norm>
0

>  <SCORE.SYSTEM>
-1.51362

>  <SCORE.SYSTEM.CONST>
0

>  <SCORE.SYSTEM.DIHEDRAL>
0.401114

>  <SCORE.SYSTEM.POLAR>
-0.502994

>  <SCORE.SYSTEM.VDW>
-0.00399686

>  <SCORE.SYSTEM.norm>
-0.0946011

>  <SCORE.heavy>
16

>  <SCORE.norm>
-0.68443

>  <enum_code>
M

>  <enum_smi>
COc1c(Cl)cc(Cl)cc1-c1cc([NH3+])n[n-]1

>  <sha256>
0220565b592d6bbf24b09234e18ce1e3bcd7b2483639a8f09b309f48b2132b18

>  <std_smi>
COc1c(Cl)cc(Cl)cc1-c1cc(N)n[nH]1

>  <uuid>
c9011ee3-0d25-4598-b2a8-411da7dddd13

$$$$
c9011ee3-0d25-4598-b2a8-411da7dddd13
  rDOCK(R)          3D
libRbt.so/2013.1/901 2013/11/27
 19 20  0  0  0  0  0  0  0  0999 V2000
   -2.7295   29.7032   -0.1082 C   0  0  0  0  0  0
   -1.7232   29.2428    0.8015 O   0  0  0  0  0  0
   -1.9229   29.8066    2.0381 C   0  0  0  0  0  0
   -2.8119   29.1972    2.9408 C   0  0  0  0  0  0
   -3.7226   27.7925    2.5038 Cl  0  0  0  0  0  0
   -2.9909   29.7149    4.2240 C   0  0  0  0  0  0
   -2.2897   30.8537    4.6065 C   0  0  0  0  0  0
   -2.5016   31.4864    6.1928 Cl  0  0  0  0  0  0
   -1.4366   31.4919    3.7108 C   0  0  0  0  0  0
   -1.2689   30.9893    2.4105 C   0  0  0  0  0  0
   -0.3487   31.8344    1.4264 C   0  0  0  0  0  0
    0.3801   31.3606    0.3515 C   0  0  0  0  0  0
    0.9183   32.5120   -0.1055 C   0  0  0  0  0  0
    1.7549   32.7599   -1.2190 N   0  3  0  0  0  0
    0.6183   33.5977    0.5692 N   0  0  0  0  0  0
   -0.2153   33.1812    1.5335 N   0  5  0  0  0  0
    1.7615   31.8284   -1.6556 H   0  0  0  0  0  0
    2.7027   32.9876   -0.9364 H   0  0  0  0  0  0
    1.3385   33.4173   -1.8697 H   0  0  0  0  0  0
  1  2  1  0  0  0
  2  3  1  0  0  0
  3  4  2  0  0  0
  4  5  1  0  0  0
  4  6  1  0  0  0
  6  7  2  0  0  0
  7  8  1  0  0  0
  7  9  1  0  0  0
  9 10  2  0  0  0
 10 11  1  0  0  0
 11 12  2  0  0  0
 12 13  1  0  0  0
 13 14  1  0  0  0
 13 15  2  0  0  0
 15 16  1  0  0  0
 10  3  1  0  0  0
 16 11  1  0  0  0
 14 17  1  0  0  0
 14 18  1  0  0  0
 14 19  1  0  0  0
M  END
>  <CHROM.0>
-59.88758699,69.33070477

>  <CHROM.1>
85.57278627,-28.28999850,5.96467802,-1.54455517,30.75768958,2.30610566,0.40371878
-0.87585464,-2.04836953

>  <Name>
c9011ee3-0d25-4598-b2a8-411da7dddd13

>  <RI>
1.49476e+07

>  <Rbt.Current_Directory>
/data/work/jku/5V6S/work/40/8dba899c20c42488f2b1a17844994e

>  <Rbt.Executable>
rbdock ($Id: //depot/dev/client3/rdock/2013.1/src/exe/rbdock.cxx#4 $)

>  <Rbt.Library>
libRbt.so (2013.1, Build901 2013/11/27)

>  <Rbt.Parameter_File>
/rDock_2013.1_src/data/scripts/dock.prm

>  <Rbt.Receptor>
docking.prm

>  <SCORE>
-15.9506

>  <SCORE.INTER>
-16.1276

>  <SCORE.INTER.CONST>
1

>  <SCORE.INTER.POLAR>
-1.61055

>  <SCORE.INTER.REPUL>
0

>  <SCORE.INTER.ROT>
2

>  <SCORE.INTER.VDW>
-18.0517

>  <SCORE.INTER.norm>
-1.00797

>  <SCORE.INTRA>
1.59584

>  <SCORE.INTRA.DIHEDRAL>
2.67905

>  <SCORE.INTRA.DIHEDRAL.0>
6.26161

>  <SCORE.INTRA.POLAR>
0

>  <SCORE.INTRA.POLAR.0>
0

>  <SCORE.INTRA.REPUL>
0

>  <SCORE.INTRA.REPUL.0>
0

>  <SCORE.INTRA.VDW>
0.256315

>  <SCORE.INTRA.VDW.0>
-0.959336

>  <SCORE.INTRA.norm>
0.09974

>  <SCORE.RESTR>
0.0940005

>  <SCORE.RESTR.CAVITY>
0.0940005

>  <SCORE.RESTR.norm>
0.00587503

>  <SCORE.SYSTEM>
-1.51283

>  <SCORE.SYSTEM.CONST>
0

>  <SCORE.SYSTEM.DIHEDRAL>
0.428787

>  <SCORE.SYSTEM.POLAR>
-0.503144

>  <SCORE.SYSTEM.VDW>
-0.0165387

>  <SCORE.SYSTEM.norm>
-0.0945521

>  <SCORE.heavy>
16

>  <SCORE.norm>
-0.996912

>  <enum_code>
M

>  <enum_smi>
COc1c(Cl)cc(Cl)cc1-c1cc([NH3+])n[n-]1

>  <sha256>
0220565b592d6bbf24b09234e18ce1e3bcd7b2483639a8f09b309f48b2132b18

>  <std_smi>
COc1c(Cl)cc(Cl)cc1-c1cc(N)n[nH]1

>  <uuid>
c9011ee3-0d25-4598-b2a8-411da7dddd13

$$$$
c9011ee3-0d25-4598-b2a8-411da7dddd13
  rDOCK(R)          3D
libRbt.so/2013.1/901 2013/11/27
 19 20  0  0  0  0  0  0  0  0999 V2000
   -2.4811   26.8657    4.2036 C   0  0  0  0  0  0
   -2.5898   25.8133    5.1695 O   0  0  0  0  0  0
   -2.1853   24.6261    4.6093 C   0  0  0  0  0  0
   -0.8127   24.3356    4.5198 C   0  0  0  0  0  0
    0.3874   25.4732    5.0290 Cl  0  0  0  0  0  0
   -0.3747   23.1135    4.0085 C   0  0  0  0  0  0
   -1.3089   22.1799    3.5721 C   0  0  0  0  0  0
   -0.7697   20.6679    2.9517 Cl  0  0  0  0  0  0
   -2.6697   22.4686    3.6167 C   0  0  0  0  0  0
   -3.1165   23.7053    4.1091 C   0  0  0  0  0  0
   -4.6803   23.9855    4.0358 C   0  0  0  0  0  0
   -5.3170   25.2055    4.1674 C   0  0  0  0  0  0
   -6.6023   24.8311    3.9878 C   0  0  0  0  0  0
   -7.7906   25.5984    3.9617 N   0  3  0  0  0  0
   -6.8081   23.5500    3.7870 N   0  0  0  0  0  0
   -5.5836   23.0033    3.7860 N   0  5  0  0  0  0
   -7.3971   26.5443    3.8677 H   0  0  0  0  0  0
   -8.2931   25.5467    4.8420 H   0  0  0  0  0  0
   -8.3537   25.4011    3.1414 H   0  0  0  0  0  0
  1  2  1  0  0  0
  2  3  1  0  0  0
  3  4  2  0  0  0
  4  5  1  0  0  0
  4  6  1  0  0  0
  6  7  2  0  0  0
  7  8  1  0  0  0
  7  9  1  0  0  0
  9 10  2  0  0  0
 10 11  1  0  0  0
 11 12  2  0  0  0
 12 13  1  0  0  0
 13 14  1  0  0  0
 13 15  2  0  0  0
 15 16  1  0  0  0
 10  3  1  0  0  0
 16 11  1  0  0  0
 14 17  1  0  0  0
 14 18  1  0  0  0
 14 19  1  0  0  0
M  END
>  <CHROM.0>
-59.88758699,68.46973645

>  <CHROM.1>
80.77305329,14.58469547,14.31591868,-2.83895616,23.97685910,4.08422629,-2.90025362
0.08854811,-2.81358733

>  <Name>
c9011ee3-0d25-4598-b2a8-411da7dddd13

>  <RI>
1.49476e+07

>  <Rbt.Current_Directory>
/data/work/jku/5V6S/work/40/8dba899c20c42488f2b1a17844994e

>  <Rbt.Executable>
rbdock ($Id: //depot/dev/client3/rdock/2013.1/src/exe/rbdock.cxx#4 $)

>  <Rbt.Library>
libRbt.so (2013.1, Build901 2013/11/27)

>  <Rbt.Parameter_File>
/rDock_2013.1_src/data/scripts/dock.prm

>  <Rbt.Receptor>
docking.prm

>  <SCORE>
-14.5068

>  <SCORE.INTER>
-13.9174

>  <SCORE.INTER.CONST>
1

>  <SCORE.INTER.POLAR>
-1.44853

>  <SCORE.INTER.REPUL>
0.0856189

>  <SCORE.INTER.ROT>
2

>  <SCORE.INTER.VDW>
-16.8205

>  <SCORE.INTER.norm>
-0.869837

>  <SCORE.INTRA>
0.923376

>  <SCORE.INTRA.DIHEDRAL>
0.415704

>  <SCORE.INTRA.DIHEDRAL.0>
6.26161

>  <SCORE.INTRA.POLAR>
0

>  <SCORE.INTRA.POLAR.0>
0

>  <SCORE.INTRA.REPUL>
0

>  <SCORE.INTRA.REPUL.0>
0

>  <SCORE.INTRA.VDW>
0.715524

>  <SCORE.INTRA.VDW.0>
-0.959336

>  <SCORE.INTRA.norm>
0.057711

>  <SCORE.RESTR>
0

>  <SCORE.RESTR.CAVITY>
0

>  <SCORE.RESTR.norm>
0

>  <SCORE.SYSTEM>
-1.51275

>  <SCORE.SYSTEM.CONST>
0

>  <SCORE.SYSTEM.DIHEDRAL>
0.355872

>  <SCORE.SYSTEM.POLAR>
-0.502548

>  <SCORE.SYSTEM.VDW>
0.017976

>  <SCORE.SYSTEM.norm>
-0.0945468

>  <SCORE.heavy>
16

>  <SCORE.norm>
-0.906673

>  <enum_code>
M

>  <enum_smi>
COc1c(Cl)cc(Cl)cc1-c1cc([NH3+])n[n-]1

>  <sha256>
0220565b592d6bbf24b09234e18ce1e3bcd7b2483639a8f09b309f48b2132b18

>  <std_smi>
COc1c(Cl)cc(Cl)cc1-c1cc(N)n[nH]1

>  <uuid>
c9011ee3-0d25-4598-b2a8-411da7dddd13

$$$$
c9011ee3-0d25-4598-b2a8-411da7dddd13
  rDOCK(R)          3D
libRbt.so/2013.1/901 2013/11/27
 19 20  0  0  0  0  0  0  0  0999 V2000
   -1.9565   26.9887    3.9448 C   0  0  0  0  0  0
   -2.8000   26.6754    5.0595 O   0  0  0  0  0  0
   -3.7906   27.6203    5.1716 C   0  0  0  0  0  0
   -3.5114   28.8435    5.8060 C   0  0  0  0  0  0
   -1.9675   29.1599    6.5201 Cl  0  0  0  0  0  0
   -4.4809   29.8439    5.8834 C   0  0  0  0  0  0
   -5.7402   29.6203    5.3367 C   0  0  0  0  0  0
   -6.9329   30.8579    5.4219 Cl  0  0  0  0  0  0
   -6.0449   28.3998    4.7411 C   0  0  0  0  0  0
   -5.0812   27.3804    4.6797 C   0  0  0  0  0  0
   -5.5454   25.9884    4.0662 C   0  0  0  0  0  0
   -6.7859   25.6801    3.5398 C   0  0  0  0  0  0
   -6.5790   24.4007    3.1595 C   0  0  0  0  0  0
   -7.4367   23.4824    2.5095 N   0  3  0  0  0  0
   -5.3874   23.9093    3.4097 N   0  0  0  0  0  0
   -4.7082   24.9248    3.9625 N   0  5  0  0  0  0
   -6.7759   23.0461    1.8528 H   0  0  0  0  0  0
   -8.1576   23.9536    1.9727 H   0  0  0  0  0  0
   -7.7801   22.7680    3.1426 H   0  0  0  0  0  0
  1  2  1  0  0  0
  2  3  1  0  0  0
  3  4  2  0  0  0
  4  5  1  0  0  0
  4  6  1  0  0  0
  6  7  2  0  0  0
  7  8  1  0  0  0
  7  9  1  0  0  0
  9 10  2  0  0  0
 10 11  1  0  0  0
 11 12  2  0  0  0
 12 13  1  0  0  0
 13 14  1  0  0  0
 13 15  2  0  0  0
 15 16  1  0  0  0
 10  3  1  0  0  0
 16 11  1  0  0  0
 14 17  1  0  0  0
 14 18  1  0  0  0
 14 19  1  0  0  0
M  END
>  <CHROM.0>
-59.88758699,68.52205861

>  <CHROM.1>
-81.42096508,-178.69347019,138.96984676,-4.83098393,27.52442860,4.77485315
-1.21826867,0.23373570,-2.75882014

>  <Name>
c9011ee3-0d25-4598-b2a8-411da7dddd13

>  <RI>
1.49476e+07

>  <Rbt.Current_Directory>
/data/work/jku/5V6S/work/40/8dba899c20c42488f2b1a17844994e

>  <Rbt.Executable>
rbdock ($Id: //depot/dev/client3/rdock/2013.1/src/exe/rbdock.cxx#4 $)

>  <Rbt.Library>
libRbt.so (2013.1, Build901 2013/11/27)

>  <Rbt.Parameter_File>
/rDock_2013.1_src/data/scripts/dock.prm

>  <Rbt.Receptor>
docking.prm

>  <SCORE>
-12.0819

>  <SCORE.INTER>
-10.5747

>  <SCORE.INTER.CONST>
1

>  <SCORE.INTER.POLAR>
-1.20257

>  <SCORE.INTER.REPUL>
0

>  <SCORE.INTER.ROT>
2

>  <SCORE.INTER.VDW>
-13.886

>  <SCORE.INTER.norm>
-0.660921

>  <SCORE.INTRA>
0.00580841

>  <SCORE.INTRA.DIHEDRAL>
-0.348288

>  <SCORE.INTRA.DIHEDRAL.0>
6.26161

>  <SCORE.INTRA.POLAR>
0

>  <SCORE.INTRA.POLAR.0>
0

>  <SCORE.INTRA.REPUL>
0

>  <SCORE.INTRA.REPUL.0>
0

>  <SCORE.INTRA.VDW>
0.179952

>  <SCORE.INTRA.VDW.0>
-0.959336

>  <SCORE.INTRA.norm>
0.000363025

>  <SCORE.RESTR>
0

>  <SCORE.RESTR.CAVITY>
0

>  <SCORE.RESTR.norm>
0

>  <SCORE.SYSTEM>
-1.51296

>  <SCORE.SYSTEM.CONST>
0

>  <SCORE.SYSTEM.DIHEDRAL>
0.360116

>  <SCORE.SYSTEM.POLAR>
-0.502601

>  <SCORE.SYSTEM.VDW>
0.0158298

>  <SCORE.SYSTEM.norm>
-0.0945597

>  <SCORE.heavy>
16

>  <SCORE.norm>
-0.755117

>  <enum_code>
M

>  <enum_smi>
COc1c(Cl)cc(Cl)cc1-c1cc([NH3+])n[n-]1

>  <sha256>
0220565b592d6bbf24b09234e18ce1e3bcd7b2483639a8f09b309f48b2132b18

>  <std_smi>
COc1c(Cl)cc(Cl)cc1-c1cc(N)n[nH]1

>  <uuid>
c9011ee3-0d25-4598-b2a8-411da7dddd13

$$$$
c9011ee3-0d25-4598-b2a8-411da7dddd13
  rDOCK(R)          3D
libRbt.so/2013.1/901 2013/11/27
 19 20  0  0  0  0  0  0  0  0999 V2000
   -4.2861   28.7394    5.1148 C   0  0  0  0  0  0
   -4.0548   28.1274    3.8404 O   0  0  0  0  0  0
   -3.1105   27.1376    3.9658 C   0  0  0  0  0  0
   -1.7481   27.4616    3.8419 C   0  0  0  0  0  0
   -1.2319   29.0677    3.4576 Cl  0  0  0  0  0  0
   -0.7648   26.4880    4.0213 C   0  0  0  0  0  0
   -1.1410   25.1812    4.3138 C   0  0  0  0  0  0
    0.0716   23.9824    4.5463 Cl  0  0  0  0  0  0
   -2.4866   24.8361    4.3999 C   0  0  0  0  0  0
   -3.4817   25.8060    4.1982 C   0  0  0  0  0  0
   -4.9905   25.3035    4.2226 C   0  0  0  0  0  0
   -6.1311   26.0836    4.1839 C   0  0  0  0  0  0
   -7.0832   25.1257    4.2002 C   0  0  0  0  0  0
   -8.4931   25.2268    4.1443 N   0  3  0  0  0  0
   -6.6544   23.8862    4.2626 N   0  0  0  0  0  0
   -5.3173   23.9860    4.2475 N   0  5  0  0  0  0
   -8.7481   24.2308    4.1097 H   0  0  0  0  0  0
   -8.8066   25.6675    3.2855 H   0  0  0  0  0  0
   -8.8802   25.6289    4.9913 H   0  0  0  0  0  0
  1  2  1  0  0  0
  2  3  1  0  0  0
  3  4  2  0  0  0
  4  5  1  0  0  0
  4  6  1  0  0  0
  6  7  2  0  0  0
  7  8  1  0  0  0
  7  9  1  0  0  0
  9 10  2  0  0  0
 10 11  1  0  0  0
 11 12  2  0  0  0
 12 13  1  0  0  0
 13 14  1  0  0  0
 13 15  2  0  0  0
 15 16  1  0  0  0
 10  3  1  0  0  0
 16 11  1  0  0  0
 14 17  1  0  0  0
 14 18  1  0  0  0
 14 19  1  0  0  0
M  END
>  <CHROM.0>
-59.88758699,-179.89154949

>  <CHROM.1>
-87.92322839,-8.20513490,175.59614084,-3.35051798,26.13091314,4.15767954
2.91455349,-0.00360627,3.02911804

>  <Name>
c9011ee3-0d25-4598-b2a8-411da7dddd13

>  <RI>
1.49476e+07

>  <Rbt.Current_Directory>
/data/work/jku/5V6S/work/40/8dba899c20c42488f2b1a17844994e

>  <Rbt.Executable>
rbdock ($Id: //depot/dev/client3/rdock/2013.1/src/exe/rbdock.cxx#4 $)

>  <Rbt.Library>
libRbt.so (2013.1, Build901 2013/11/27)

>  <Rbt.Parameter_File>
/rDock_2013.1_src/data/scripts/dock.prm

>  <Rbt.Receptor>
docking.prm

>  <SCORE>
-12.032

>  <SCORE.INTER>
-11.867

>  <SCORE.INTER.CONST>
1

>  <SCORE.INTER.POLAR>
-1.07319

>  <SCORE.INTER.REPUL>
0

>  <SCORE.INTER.ROT>
2

>  <SCORE.INTER.VDW>
-15.6181

>  <SCORE.INTER.norm>
-0.741685

>  <SCORE.INTRA>
0.106664

>  <SCORE.INTRA.DIHEDRAL>
0.0269666

>  <SCORE.INTRA.DIHEDRAL.0>
6.26161

>  <SCORE.INTRA.POLAR>
0

>  <SCORE.INTRA.POLAR.0>
0

>  <SCORE.INTRA.REPUL>
0

>  <SCORE.INTRA.REPUL.0>
0

>  <SCORE.INTRA.VDW>
0.0931806

>  <SCORE.INTRA.VDW.0>
-0.959336

>  <SCORE.INTRA.norm>
0.00666649

>  <SCORE.RESTR>
0

>  <SCORE.RESTR.CAVITY>
0

>  <SCORE.RESTR.norm>
0

>  <SCORE.SYSTEM>
-0.271731

>  <SCORE.SYSTEM.CONST>
0

>  <SCORE.SYSTEM.DIHEDRAL>
0.00768933

>  <SCORE.SYSTEM.VDW>
-0.275575

>  <SCORE.SYSTEM.norm>
-0.0169832

>  <SCORE.heavy>
16

>  <SCORE.norm>
-0.752001

>  <enum_code>
M

>  <enum_smi>
COc1c(Cl)cc(Cl)cc1-c1cc([NH3+])n[n-]1

>  <sha256>
0220565b592d6bbf24b09234e18ce1e3bcd7b2483639a8f09b309f48b2132b18

>  <std_smi>
COc1c(Cl)cc(Cl)cc1-c1cc(N)n[nH]1

>  <uuid>
c9011ee3-0d25-4598-b2a8-411da7dddd13

$$$$
21f4e05f-12d8-48dd-ae5c-685f7acdb0e2
  rDOCK(R)          3D
libRbt.so/2013.1/901 2013/11/27
 18 19  0  0  0  0  0  0  0  0999 V2000
   -0.6219   28.4461    1.1127 C   0  0  0  0  0  0
   -1.8060   29.1270    0.6952 O   0  0  0  0  0  0
   -2.3603   29.8489    1.7189 C   0  0  0  0  0  0
   -3.4242   29.2488    2.4171 C   0  0  0  0  0  0
   -3.9547   27.6385    2.0586 Cl  0  0  0  0  0  0
   -4.0906   29.9300    3.4351 C   0  0  0  0  0  0
   -3.7052   31.2256    3.7494 C   0  0  0  0  0  0
   -4.5235   32.0741    5.0057 Cl  0  0  0  0  0  0
   -2.6664   31.8459    3.0583 C   0  0  0  0  0  0
   -1.9836   31.1702    2.0314 C   0  0  0  0  0  0
   -0.8031   31.9593    1.2817 C   0  0  0  0  0  0
   -0.0051   31.4279    0.2855 C   0  0  0  0  0  0
    0.8155   32.4738   -0.0511 C   0  0  0  0  0  0
    1.7986   32.5640   -1.0177 N   0  0  0  0  0  0
    0.5359   33.5612    0.6698 N   0  0  0  0  0  0
   -0.4640   33.2412    1.5144 N   0  5  0  0  0  0
    1.4848   32.1101   -1.8703 H   0  0  0  0  0  0
    2.7320   32.2772   -0.7685 H   0  0  0  0  0  0
  1  2  1  0  0  0
  2  3  1  0  0  0
  3  4  2  0  0  0
  4  5  1  0  0  0
  4  6  1  0  0  0
  6  7  2  0  0  0
  7  8  1  0  0  0
  7  9  1  0  0  0
  9 10  2  0  0  0
 10 11  1  0  0  0
 11 12  2  0  0  0
 12 13  1  0  0  0
 13 14  1  0  0  0
 13 15  2  0  0  0
 15 16  1  0  0  0
 10  3  1  0  0  0
 16 11  1  0  0  0
 14 17  1  0  0  0
 14 18  1  0  0  0
M  END
>  <CHROM.0>
-59.88758699,68.06385848

>  <CHROM.1>
-97.76335553,-2.03343243,41.32222775,-2.07725206,30.78175778,1.99971375,-0.13317252
-0.70547540,-2.73023705

>  <Name>
21f4e05f-12d8-48dd-ae5c-685f7acdb0e2

>  <RI>
3.67957e+07

>  <Rbt.Current_Directory>
/data/work/jku/5V6S/work/40/8dba899c20c42488f2b1a17844994e

>  <Rbt.Executable>
rbdock ($Id: //depot/dev/client3/rdock/2013.1/src/exe/rbdock.cxx#4 $)

>  <Rbt.Library>
libRbt.so (2013.1, Build901 2013/11/27)

>  <Rbt.Parameter_File>
/rDock_2013.1_src/data/scripts/dock.prm

>  <Rbt.Receptor>
docking.prm

>  <SCORE>
-9.96469

>  <SCORE.INTER>
-8.61009

>  <SCORE.INTER.CONST>
1

>  <SCORE.INTER.POLAR>
-1.41622

>  <SCORE.INTER.REPUL>
0.237866

>  <SCORE.INTER.ROT>
3

>  <SCORE.INTER.VDW>
-13.3843

>  <SCORE.INTER.norm>
-0.53813

>  <SCORE.INTRA>
0.155498

>  <SCORE.INTRA.DIHEDRAL>
0.182364

>  <SCORE.INTRA.DIHEDRAL.0>
5.04622

>  <SCORE.INTRA.POLAR>
0

>  <SCORE.INTRA.POLAR.0>
0

>  <SCORE.INTRA.REPUL>
0

>  <SCORE.INTRA.REPUL.0>
0

>  <SCORE.INTRA.VDW>
0.0643155

>  <SCORE.INTRA.VDW.0>
-0.691235

>  <SCORE.INTRA.norm>
0.0097186

>  <SCORE.RESTR>
0.000161543

>  <SCORE.RESTR.CAVITY>
0.000161543

>  <SCORE.RESTR.norm>
1.00965e-05

>  <SCORE.SYSTEM>
-1.51026

>  <SCORE.SYSTEM.CONST>
0

>  <SCORE.SYSTEM.DIHEDRAL>
0.323782

>  <SCORE.SYSTEM.POLAR>
-0.502057

>  <SCORE.SYSTEM.VDW>
0.0348425

>  <SCORE.SYSTEM.norm>
-0.0943912

>  <SCORE.heavy>
16

>  <SCORE.norm>
-0.622793

>  <enum_code>
M

>  <enum_smi>
COc1c(Cl)cc(Cl)cc1-c1cc(N)n[n-]1

>  <sha256>
0220565b592d6bbf24b09234e18ce1e3bcd7b2483639a8f09b309f48b2132b18

>  <std_smi>
COc1c(Cl)cc(Cl)cc1-c1cc(N)n[nH]1

>  <uuid>
21f4e05f-12d8-48dd-ae5c-685f7acdb0e2

$$$$
21f4e05f-12d8-48dd-ae5c-685f7acdb0e2
  rDOCK(R)          3D
libRbt.so/2013.1/901 2013/11/27
 18 19  0  0  0  0  0  0  0  0999 V2000
   -2.6380   23.2764    4.4233 C   0  0  0  0  0  0
   -2.9954   23.8028    5.7020 O   0  0  0  0  0  0
   -2.8085   25.1586    5.7597 C   0  0  0  0  0  0
   -1.5868   25.6102    6.2918 C   0  0  0  0  0  0
   -0.3404   24.5066    6.7730 Cl  0  0  0  0  0  0
   -1.3299   26.9720    6.4460 C   0  0  0  0  0  0
   -2.3037   27.8913    6.0824 C   0  0  0  0  0  0
   -1.9940   29.5756    6.2698 Cl  0  0  0  0  0  0
   -3.5278   27.4656    5.5706 C   0  0  0  0  0  0
   -3.7998   26.0957    5.4070 C   0  0  0  0  0  0
   -5.2368   25.6905    4.8162 C   0  0  0  0  0  0
   -6.2439   26.5847    4.5038 C   0  0  0  0  0  0
   -7.2401   25.7782    4.0163 C   0  0  0  0  0  0
   -8.4817   26.1012    3.5032 N   0  0  0  0  0  0
   -6.8704   24.4962    4.0173 N   0  0  0  0  0  0
   -5.6259   24.4339    4.5300 N   0  5  0  0  0  0
   -8.6432   25.5847    2.6439 H   0  0  0  0  0  0
   -8.7075   27.0774    3.3956 H   0  0  0  0  0  0
  1  2  1  0  0  0
  2  3  1  0  0  0
  3  4  2  0  0  0
  4  5  1  0  0  0
  4  6  1  0  0  0
  6  7  2  0  0  0
  7  8  1  0  0  0
  7  9  1  0  0  0
  9 10  2  0  0  0
 10 11  1  0  0  0
 11 12  2  0  0  0
 12 13  1  0  0  0
 13 14  1  0  0  0
 13 15  2  0  0  0
 15 16  1  0  0  0
 10  3  1  0  0  0
 16 11  1  0  0  0
 14 17  1  0  0  0
 14 18  1  0  0  0
M  END
>  <CHROM.0>
-59.88758699,-63.37311294

>  <CHROM.1>
-95.05850150,177.72715560,133.80171173,-3.50900550,25.99550879,5.44119992
-2.93101465,-0.37971705,0.10341996

>  <Name>
21f4e05f-12d8-48dd-ae5c-685f7acdb0e2

>  <RI>
3.67957e+07

>  <Rbt.Current_Directory>
/data/work/jku/5V6S/work/40/8dba899c20c42488f2b1a17844994e

>  <Rbt.Executable>
rbdock ($Id: //depot/dev/client3/rdock/2013.1/src/exe/rbdock.cxx#4 $)

>  <Rbt.Library>
libRbt.so (2013.1, Build901 2013/11/27)

>  <Rbt.Parameter_File>
/rDock_2013.1_src/data/scripts/dock.prm

>  <Rbt.Receptor>
docking.prm

>  <SCORE>
-11.2235

>  <SCORE.INTER>
-12.1549

>  <SCORE.INTER.CONST>
1

>  <SCORE.INTER.POLAR>
-0.752303

>  <SCORE.INTER.REPUL>
0.0708489

>  <SCORE.INTER.ROT>
3

>  <SCORE.INTER.VDW>
-18.3513

>  <SCORE.INTER.norm>
-0.759681

>  <SCORE.INTRA>
-0.0932767

>  <SCORE.INTRA.DIHEDRAL>
0.233851

>  <SCORE.INTRA.DIHEDRAL.0>
5.04622

>  <SCORE.INTRA.POLAR>
0

>  <SCORE.INTRA.POLAR.0>
0

>  <SCORE.INTRA.REPUL>
0

>  <SCORE.INTRA.REPUL.0>
0

>  <SCORE.INTRA.VDW>
-0.210202

>  <SCORE.INTRA.VDW.0>
-0.691235

>  <SCORE.INTRA.norm>
-0.00582979

>  <SCORE.RESTR>
0

>  <SCORE.RESTR.CAVITY>
0

>  <SCORE.RESTR.norm>
0

>  <SCORE.SYSTEM>
1.02471

>  <SCORE.SYSTEM.CONST>
0

>  <SCORE.SYSTEM.DIHEDRAL>
0.0636331

>  <SCORE.SYSTEM.REPUL>
0.146948

>  <SCORE.SYSTEM.VDW>
0.25815

>  <SCORE.SYSTEM.norm>
0.0640441

>  <SCORE.heavy>
16

>  <SCORE.norm>
-0.701467

>  <enum_code>
M

>  <enum_smi>
COc1c(Cl)cc(Cl)cc1-c1cc(N)n[n-]1

>  <sha256>
0220565b592d6bbf24b09234e18ce1e3bcd7b2483639a8f09b309f48b2132b18

>  <std_smi>
COc1c(Cl)cc(Cl)cc1-c1cc(N)n[nH]1

>  <uuid>
21f4e05f-12d8-48dd-ae5c-685f7acdb0e2

$$$$
21f4e05f-12d8-48dd-ae5c-685f7acdb0e2
  rDOCK(R)          3D
libRbt.so/2013.1/901 2013/11/27
 18 19  0  0  0  0  0  0  0  0999 V2000
   -5.0416   21.9748    2.7835 C   0  0  0  0  0  0
   -4.6967   22.3224    4.1253 O   0  0  0  0  0  0
   -3.5219   23.0249    4.1783 C   0  0  0  0  0  0
   -2.3352   22.2740    4.2644 C   0  0  0  0  0  0
   -2.3490   20.5418    4.2190 Cl  0  0  0  0  0  0
   -1.0953   22.9010    4.3831 C   0  0  0  0  0  0
   -1.0379   24.2866    4.4328 C   0  0  0  0  0  0
    0.4900   25.0688    4.5794 Cl  0  0  0  0  0  0
   -2.2022   25.0493    4.3679 C   0  0  0  0  0  0
   -3.4592   24.4309    4.2453 C   0  0  0  0  0  0
   -4.7508   25.3827    4.1830 C   0  0  0  0  0  0
   -6.0467   24.9448    3.9820 C   0  0  0  0  0  0
   -6.7816   26.1012    4.0384 C   0  0  0  0  0  0
   -8.1461   26.2990    3.9493 N   0  0  0  0  0  0
   -6.0028   27.1600    4.2678 N   0  0  0  0  0  0
   -4.7318   26.7192    4.3438 N   0  5  0  0  0  0
   -8.5892   26.0362    4.8245 H   0  0  0  0  0  0
   -8.6287   25.9041    3.1576 H   0  0  0  0  0  0
  1  2  1  0  0  0
  2  3  1  0  0  0
  3  4  2  0  0  0
  4  5  1  0  0  0
  4  6  1  0  0  0
  6  7  2  0  0  0
  7  8  1  0  0  0
  7  9  1  0  0  0
  9 10  2  0  0  0
 10 11  1  0  0  0
 11 12  2  0  0  0
 12 13  1  0  0  0
 13 14  1  0  0  0
 13 15  2  0  0  0
 15 16  1  0  0  0
 10  3  1  0  0  0
 16 11  1  0  0  0
 14 17  1  0  0  0
 14 18  1  0  0  0
M  END
>  <CHROM.0>
-59.88758699,68.17470663

>  <CHROM.1>
-87.56405928,-3.88369758,76.45218906,-3.43523928,24.02409198,4.17704474,2.64115022
-0.10999485,0.09041618

>  <Name>
21f4e05f-12d8-48dd-ae5c-685f7acdb0e2

>  <RI>
3.67957e+07

>  <Rbt.Current_Directory>
/data/work/jku/5V6S/work/40/8dba899c20c42488f2b1a17844994e

>  <Rbt.Executable>
rbdock ($Id: //depot/dev/client3/rdock/2013.1/src/exe/rbdock.cxx#4 $)

>  <Rbt.Library>
libRbt.so (2013.1, Build901 2013/11/27)

>  <Rbt.Parameter_File>
/rDock_2013.1_src/data/scripts/dock.prm

>  <Rbt.Receptor>
docking.prm

>  <SCORE>
-13.6599

>  <SCORE.INTER>
-12.2822

>  <SCORE.INTER.CONST>
1

>  <SCORE.INTER.POLAR>
-1.22294

>  <SCORE.INTER.REPUL>
0.000902024

>  <SCORE.INTER.ROT>
3

>  <SCORE.INTER.VDW>
-16.5287

>  <SCORE.INTER.norm>
-0.767636

>  <SCORE.INTRA>
0.0931706

>  <SCORE.INTRA.DIHEDRAL>
0.30406

>  <SCORE.INTRA.DIHEDRAL.0>
5.04622

>  <SCORE.INTRA.POLAR>
0

>  <SCORE.INTRA.POLAR.0>
0

>  <SCORE.INTRA.REPUL>
0

>  <SCORE.INTRA.REPUL.0>
0

>  <SCORE.INTRA.VDW>
-0.0588594

>  <SCORE.INTRA.VDW.0>
-0.691235

>  <SCORE.INTRA.norm>
0.00582316

>  <SCORE.RESTR>
0.0401703

>  <SCORE.RESTR.CAVITY>
0.0401703

>  <SCORE.RESTR.norm>
0.00251064

>  <SCORE.SYSTEM>
-1.5111

>  <SCORE.SYSTEM.CONST>
0

>  <SCORE.SYSTEM.DIHEDRAL>
0.332399

>  <SCORE.SYSTEM.POLAR>
-0.502204

>  <SCORE.SYSTEM.VDW>
0.0301977

>  <SCORE.SYSTEM.norm>
-0.0944435

>  <SCORE.heavy>
16

>  <SCORE.norm>
-0.853746

>  <enum_code>
M

>  <enum_smi>
COc1c(Cl)cc(Cl)cc1-c1cc(N)n[n-]1

>  <sha256>
0220565b592d6bbf24b09234e18ce1e3bcd7b2483639a8f09b309f48b2132b18

>  <std_smi>
COc1c(Cl)cc(Cl)cc1-c1cc(N)n[nH]1

>  <uuid>
21f4e05f-12d8-48dd-ae5c-685f7acdb0e2

$$$$
21f4e05f-12d8-48dd-ae5c-685f7acdb0e2
  rDOCK(R)          3D
libRbt.so/2013.1/901 2013/11/27
 18 19  0  0  0  0  0  0  0  0999 V2000
   -2.0647   27.3554    5.8775 C   0  0  0  0  0  0
   -1.9875   26.8325    4.5507 O   0  0  0  0  0  0
   -2.2704   25.4926    4.5193 C   0  0  0  0  0  0
   -1.1780   24.6097    4.6021 C   0  0  0  0  0  0
    0.4422   25.1846    4.8201 Cl  0  0  0  0  0  0
   -1.3614   23.2300    4.5183 C   0  0  0  0  0  0
   -2.6411   22.7258    4.3342 C   0  0  0  0  0  0
   -2.8760   21.0223    4.2296 Cl  0  0  0  0  0  0
   -3.7350   23.5827    4.2309 C   0  0  0  0  0  0
   -3.5656   24.9760    4.3164 C   0  0  0  0  0  0
   -4.8773   25.8921    4.1817 C   0  0  0  0  0  0
   -6.1160   25.4426    3.7630 C   0  0  0  0  0  0
   -6.9005   26.5646    3.8417 C   0  0  0  0  0  0
   -8.2489   26.7325    3.5911 N   0  0  0  0  0  0
   -6.2043   27.6132    4.2843 N   0  0  0  0  0  0
   -4.9365   27.2027    4.4838 N   0  5  0  0  0  0
   -8.5186   26.1835    2.7805 H   0  0  0  0  0  0
   -8.6039   27.6740    3.5345 H   0  0  0  0  0  0
  1  2  1  0  0  0
  2  3  1  0  0  0
  3  4  2  0  0  0
  4  5  1  0  0  0
  4  6  1  0  0  0
  6  7  2  0  0  0
  7  8  1  0  0  0
  7  9  1  0  0  0
  9 10  2  0  0  0
 10 11  1  0  0  0
 11 12  2  0  0  0
 12 13  1  0  0  0
 13 14  1  0  0  0
 13 15  2  0  0  0
 15 16  1  0  0  0
 10  3  1  0  0  0
 16 11  1  0  0  0
 14 17  1  0  0  0
 14 18  1  0  0  0
M  END
>  <CHROM.0>
-59.88758699,69.58523411

>  <CHROM.1>
-93.49145057,168.58254781,-39.29520533,-3.27259270,24.97381112,4.41158461
-2.63216173,0.17190167,-3.03421008

>  <Name>
21f4e05f-12d8-48dd-ae5c-685f7acdb0e2

>  <RI>
3.67957e+07

>  <Rbt.Current_Directory>
/data/work/jku/5V6S/work/40/8dba899c20c42488f2b1a17844994e

>  <Rbt.Executable>
rbdock ($Id: //depot/dev/client3/rdock/2013.1/src/exe/rbdock.cxx#4 $)

>  <Rbt.Library>
libRbt.so (2013.1, Build901 2013/11/27)

>  <Rbt.Parameter_File>
/rDock_2013.1_src/data/scripts/dock.prm

>  <Rbt.Receptor>
docking.prm

>  <SCORE>
-13.8618

>  <SCORE.INTER>
-12.7092

>  <SCORE.INTER.CONST>
1

>  <SCORE.INTER.POLAR>
-1.03078

>  <SCORE.INTER.REPUL>
0.0640374

>  <SCORE.INTER.ROT>
3

>  <SCORE.INTER.VDW>
-17.9248

>  <SCORE.INTER.norm>
-0.794326

>  <SCORE.INTRA>
0.231127

>  <SCORE.INTRA.DIHEDRAL>
0.827876

>  <SCORE.INTRA.DIHEDRAL.0>
5.04622

>  <SCORE.INTRA.POLAR>
0

>  <SCORE.INTRA.POLAR.0>
0

>  <SCORE.INTRA.REPUL>
0

>  <SCORE.INTRA.REPUL.0>
0

>  <SCORE.INTRA.VDW>
-0.18281

>  <SCORE.INTRA.VDW.0>
-0.691235

>  <SCORE.INTRA.norm>
0.0144455

>  <SCORE.RESTR>
0.127805

>  <SCORE.RESTR.CAVITY>
0.127805

>  <SCORE.RESTR.norm>
0.00798784

>  <SCORE.SYSTEM>
-1.51153

>  <SCORE.SYSTEM.CONST>
0

>  <SCORE.SYSTEM.DIHEDRAL>
0.451587

>  <SCORE.SYSTEM.POLAR>
-0.503206

>  <SCORE.SYSTEM.VDW>
-0.0264198

>  <SCORE.SYSTEM.norm>
-0.0944704

>  <SCORE.heavy>
16

>  <SCORE.norm>
-0.866363

>  <enum_code>
M

>  <enum_smi>
COc1c(Cl)cc(Cl)cc1-c1cc(N)n[n-]1

>  <sha256>
0220565b592d6bbf24b09234e18ce1e3bcd7b2483639a8f09b309f48b2132b18

>  <std_smi>
COc1c(Cl)cc(Cl)cc1-c1cc(N)n[nH]1

>  <uuid>
21f4e05f-12d8-48dd-ae5c-685f7acdb0e2

$$$$
21f4e05f-12d8-48dd-ae5c-685f7acdb0e2
  rDOCK(R)          3D
libRbt.so/2013.1/901 2013/11/27
 18 19  0  0  0  0  0  0  0  0999 V2000
   -2.1976   27.1897    5.7605 C   0  0  0  0  0  0
   -2.1388   26.6603    4.4353 O   0  0  0  0  0  0
   -2.3285   25.3037    4.4251 C   0  0  0  0  0  0
   -1.1787   24.4998    4.5315 C   0  0  0  0  0  0
    0.3961   25.1887    4.7517 Cl  0  0  0  0  0  0
   -1.2658   23.1095    4.4704 C   0  0  0  0  0  0
   -2.5061   22.5152    4.2855 C   0  0  0  0  0  0
   -2.6223   20.7981    4.2088 Cl  0  0  0  0  0  0
   -3.6555   23.2927    4.1591 C   0  0  0  0  0  0
   -3.5832   24.6957    4.2216 C   0  0  0  0  0  0
   -4.9537   25.5166    4.0610 C   0  0  0  0  0  0
   -6.1747   24.9596    3.7285 C   0  0  0  0  0  0
   -7.0252   26.0352    3.7433 C   0  0  0  0  0  0
   -8.3890   26.1000    3.5311 N   0  0  0  0  0  0
   -6.3822   27.1576    4.0705 N   0  0  0  0  0  0
   -5.0852   26.8423    4.2551 N   0  5  0  0  0  0
   -8.6009   25.8316    2.5748 H   0  0  0  0  0  0
   -8.8664   26.9486    3.7911 H   0  0  0  0  0  0
  1  2  1  0  0  0
  2  3  1  0  0  0
  3  4  2  0  0  0
  4  5  1  0  0  0
  4  6  1  0  0  0
  6  7  2  0  0  0
  7  8  1  0  0  0
  7  9  1  0  0  0
  9 10  2  0  0  0
 10 11  1  0  0  0
 11 12  2  0  0  0
 12 13  1  0  0  0
 13 14  1  0  0  0
 13 15  2  0  0  0
 15 16  1  0  0  0
 10  3  1  0  0  0
 16 11  1  0  0  0
 14 17  1  0  0  0
 14 18  1  0  0  0
M  END
>  <CHROM.0>
-59.88758699,-179.39640332

>  <CHROM.1>
-90.60656290,173.19273180,-64.66157417,-3.28867145,24.71551028,4.32563303
-0.43780645,-0.16594662,0.09879427

>  <Name>
21f4e05f-12d8-48dd-ae5c-685f7acdb0e2

>  <RI>
3.67957e+07

>  <Rbt.Current_Directory>
/data/work/jku/5V6S/work/40/8dba899c20c42488f2b1a17844994e

>  <Rbt.Executable>
rbdock ($Id: //depot/dev/client3/rdock/2013.1/src/exe/rbdock.cxx#4 $)

>  <Rbt.Library>
libRbt.so (2013.1, Build901 2013/11/27)

>  <Rbt.Parameter_File>
/rDock_2013.1_src/data/scripts/dock.prm

>  <Rbt.Receptor>
docking.prm

>  <SCORE>
-12.055

>  <SCORE.INTER>
-11.8129

>  <SCORE.INTER.CONST>
1

>  <SCORE.INTER.POLAR>
-0.773993

>  <SCORE.INTER.REPUL>
0.00142664

>  <SCORE.INTER.ROT>
3

>  <SCORE.INTER.VDW>
-17.5885

>  <SCORE.INTER.norm>
-0.738307

>  <SCORE.INTRA>
0.0286946

>  <SCORE.INTRA.DIHEDRAL>
0.433276

>  <SCORE.INTRA.DIHEDRAL.0>
5.04622

>  <SCORE.INTRA.POLAR>
0

>  <SCORE.INTRA.POLAR.0>
0

>  <SCORE.INTRA.REPUL>
0

>  <SCORE.INTRA.REPUL.0>
0

>  <SCORE.INTRA.VDW>
-0.187944

>  <SCORE.INTRA.VDW.0>
-0.691235

>  <SCORE.INTRA.norm>
0.00179341

>  <SCORE.RESTR>
0

>  <SCORE.RESTR.CAVITY>
0

>  <SCORE.RESTR.norm>
0

>  <SCORE.SYSTEM>
-0.270749

>  <SCORE.SYSTEM.CONST>
0

>  <SCORE.SYSTEM.DIHEDRAL>
0.00942903

>  <SCORE.SYSTEM.VDW>
-0.275463

>  <SCORE.SYSTEM.norm>
-0.0169218

>  <SCORE.heavy>
16

>  <SCORE.norm>
-0.753436

>  <enum_code>
M

>  <enum_smi>
COc1c(Cl)cc(Cl)cc1-c1cc(N)n[n-]1

>  <sha256>
0220565b592d6bbf24b09234e18ce1e3bcd7b2483639a8f09b309f48b2132b18

>  <std_smi>
COc1c(Cl)cc(Cl)cc1-c1cc(N)n[nH]1

>  <uuid>
21f4e05f-12d8-48dd-ae5c-685f7acdb0e2

$$$$
58120764-f33b-41e8-8bd7-f773af7f828a
  rDOCK(R)          3D
libRbt.so/2013.1/901 2013/11/27
 16 18  0  0  0  0  0  0  0  0999 V2000
   -1.7150   25.2092    6.5843 O   0  0  0  0  0  0
   -1.8875   26.4166    6.4959 C   0  0  0  0  0  0
   -1.6270   27.2219    5.2834 C   0  0  0  0  0  0
   -1.1975   26.5686    4.1947 C   0  0  0  0  0  0
   -0.8989   27.1242    2.9735 O   0  0  0  0  0  0
   -1.0494   28.4819    2.8364 C   0  0  0  0  0  0
   -0.7409   29.0273    1.5880 C   0  0  0  0  0  0
   -0.8877   30.3900    1.4367 C   0  0  0  0  0  0
   -1.3204   31.1950    2.4661 C   0  0  0  0  0  0
   -1.6318   30.6848    3.7079 C   0  0  0  0  0  0
   -1.4913   29.3025    3.8884 C   0  0  0  0  0  0
   -1.8070   28.6867    5.1924 C   0  0  0  0  0  0
   -2.1930   29.3820    6.1212 O   0  0  0  0  0  0
   -1.3941   32.5030    2.1034 O   0  0  0  0  0  0
   -0.9594   32.4332    0.7294 C   0  0  0  0  0  0
   -0.6363   31.0930    0.3004 O   0  0  0  0  0  0
  1  2  2  0  0  0
  2  3  1  0  0  0
  3  4  2  0  0  0
  4  5  1  0  0  0
  5  6  1  0  0  0
  6  7  2  0  0  0
  7  8  1  0  0  0
  8  9  2  0  0  0
  9 10  1  0  0  0
 10 11  2  0  0  0
 11 12  1  0  0  0
 12 13  2  0  0  0
  9 14  1  0  0  0
 14 15  1  0  0  0
 15 16  1  0  0  0
 12  3  1  0  0  0
 11  6  1  0  0  0
 16  8  1  0  0  0
M  END
>  <CHROM.0>
-59.88758699,69.36894789

>  <CHROM.1>
1.52683768,-1.33929216,29.11683448,3.48883288,-1.88627026,1.24272408,-0.43498736

>  <Name>
58120764-f33b-41e8-8bd7-f773af7f828a

>  <RI>
1.50254e+07

>  <Rbt.Current_Directory>
/data/work/jku/5V6S/work/40/8dba899c20c42488f2b1a17844994e

>  <Rbt.Executable>
rbdock ($Id: //depot/dev/client3/rdock/2013.1/src/exe/rbdock.cxx#4 $)

>  <Rbt.Library>
libRbt.so (2013.1, Build901 2013/11/27)

>  <Rbt.Parameter_File>
/rDock_2013.1_src/data/scripts/dock.prm

>  <Rbt.Receptor>
docking.prm

>  <SCORE>
-9.21583

>  <SCORE.INTER>
-8.14148

>  <SCORE.INTER.CONST>
1

>  <SCORE.INTER.POLAR>
0

>  <SCORE.INTER.REPUL>
0

>  <SCORE.INTER.ROT>
1

>  <SCORE.INTER.VDW>
-14.5415

>  <SCORE.INTER.norm>
-0.508843

>  <SCORE.INTRA>
0.438325

>  <SCORE.INTRA.DIHEDRAL>
0.00909185

>  <SCORE.INTRA.DIHEDRAL.0>
1.52749e-07

>  <SCORE.INTRA.POLAR>
0

>  <SCORE.INTRA.POLAR.0>
0

>  <SCORE.INTRA.REPUL>
0

>  <SCORE.INTRA.REPUL.0>
0

>  <SCORE.INTRA.VDW>
0.433779

>  <SCORE.INTRA.VDW.0>
-0.320511

>  <SCORE.INTRA.norm>
0.0273953

>  <SCORE.RESTR>
0

>  <SCORE.RESTR.CAVITY>
0

>  <SCORE.RESTR.norm>
0

>  <SCORE.SYSTEM>
-1.51268

>  <SCORE.SYSTEM.CONST>
0

>  <SCORE.SYSTEM.DIHEDRAL>
0.432177

>  <SCORE.SYSTEM.POLAR>
-0.503157

>  <SCORE.SYSTEM.VDW>
-0.0180326

>  <SCORE.SYSTEM.norm>
-0.0945423

>  <SCORE.heavy>
16

>  <SCORE.norm>
-0.57599

>  <enum_code>
B

>  <enum_smi>
O=Cc1coc2cc3c(cc2c1=O)OCO3

>  <sha256>
003eea610e161960d540fa42700c685eece3db6e810f597e66cc5ea20df7b961

>  <std_smi>
O=Cc1coc2cc3c(cc2c1=O)OCO3

>  <uuid>
58120764-f33b-41e8-8bd7-f773af7f828a

$$$$
58120764-f33b-41e8-8bd7-f773af7f828a
  rDOCK(R)          3D
libRbt.so/2013.1/901 2013/11/27
 16 18  0  0  0  0  0  0  0  0999 V2000
   -2.6950   20.6523    3.6219 O   0  0  0  0  0  0
   -2.3584   21.6974    4.1603 C   0  0  0  0  0  0
   -3.2238   22.8863    4.3152 C   0  0  0  0  0  0
   -2.7015   23.9457    4.9487 C   0  0  0  0  0  0
   -3.3318   25.1418    5.1965 O   0  0  0  0  0  0
   -4.6254   25.2837    4.7591 C   0  0  0  0  0  0
   -5.2485   26.5062    5.0205 C   0  0  0  0  0  0
   -6.5480   26.6621    4.5865 C   0  0  0  0  0  0
   -7.2186   25.6615    3.9202 C   0  0  0  0  0  0
   -6.6293   24.4457    3.6486 C   0  0  0  0  0  0
   -5.3088   24.2611    4.0789 C   0  0  0  0  0  0
   -4.6144   22.9839    3.8224 C   0  0  0  0  0  0
   -5.1902   22.0809    3.2324 O   0  0  0  0  0  0
   -8.4848   26.0235    3.5833 O   0  0  0  0  0  0
   -8.5381   27.3650    4.1116 C   0  0  0  0  0  0
   -7.3102   27.7760    4.7503 O   0  0  0  0  0  0
  1  2  2  0  0  0
  2  3  1  0  0  0
  3  4  2  0  0  0
  4  5  1  0  0  0
  5  6  1  0  0  0
  6  7  2  0  0  0
  7  8  1  0  0  0
  8  9  2  0  0  0
  9 10  1  0  0  0
 10 11  2  0  0  0
 11 12  1  0  0  0
 12 13  2  0  0  0
  9 14  1  0  0  0
 14 15  1  0  0  0
 15 16  1  0  0  0
 12  3  1  0  0  0
 11  6  1  0  0  0
 16  8  1  0  0  0
M  END
>  <CHROM.0>
-59.88758699,68.22527178

>  <CHROM.1>
179.09581635,-5.27700984,24.58047903,4.22307217,0.75258879,0.34073858,-2.75436961

>  <Name>
58120764-f33b-41e8-8bd7-f773af7f828a

>  <RI>
1.50254e+07

>  <Rbt.Current_Directory>
/data/work/jku/5V6S/work/40/8dba899c20c42488f2b1a17844994e

>  <Rbt.Executable>
rbdock ($Id: //depot/dev/client3/rdock/2013.1/src/exe/rbdock.cxx#4 $)

>  <Rbt.Library>
libRbt.so (2013.1, Build901 2013/11/27)

>  <Rbt.Parameter_File>
/rDock_2013.1_src/data/scripts/dock.prm

>  <Rbt.Receptor>
docking.prm

>  <SCORE>
-9.30637

>  <SCORE.INTER>
-7.79648

>  <SCORE.INTER.CONST>
1

>  <SCORE.INTER.POLAR>
0

>  <SCORE.INTER.REPUL>
0.046349

>  <SCORE.INTER.ROT>
1

>  <SCORE.INTER.VDW>
-14.4282

>  <SCORE.INTER.norm>
-0.48728

>  <SCORE.INTRA>
0.00155467

>  <SCORE.INTRA.DIHEDRAL>
0.00318466

>  <SCORE.INTRA.DIHEDRAL.0>
1.52749e-07

>  <SCORE.INTRA.POLAR>
0

>  <SCORE.INTRA.POLAR.0>
0

>  <SCORE.INTRA.REPUL>
0

>  <SCORE.INTRA.REPUL.0>
0

>  <SCORE.INTRA.VDW>
-3.76583e-05

>  <SCORE.INTRA.VDW.0>
-0.320511

>  <SCORE.INTRA.norm>
9.71671e-05

>  <SCORE.RESTR>
0

>  <SCORE.RESTR.CAVITY>
0

>  <SCORE.RESTR.norm>
0

>  <SCORE.SYSTEM>
-1.51144

>  <SCORE.SYSTEM.CONST>
0

>  <SCORE.SYSTEM.DIHEDRAL>
0.336367

>  <SCORE.SYSTEM.POLAR>
-0.502268

>  <SCORE.SYSTEM.VDW>
0.0280885

>  <SCORE.SYSTEM.norm>
-0.094465

>  <SCORE.heavy>
16

>  <SCORE.norm>
-0.581648

>  <enum_code>
B

>  <enum_smi>
O=Cc1coc2cc3c(cc2c1=O)OCO3

>  <sha256>
003eea610e161960d540fa42700c685eece3db6e810f597e66cc5ea20df7b961

>  <std_smi>
O=Cc1coc2cc3c(cc2c1=O)OCO3

>  <uuid>
58120764-f33b-41e8-8bd7-f773af7f828a

$$$$
58120764-f33b-41e8-8bd7-f773af7f828a
  rDOCK(R)          3D
libRbt.so/2013.1/901 2013/11/27
 16 18  0  0  0  0  0  0  0  0999 V2000
   -8.5925   26.9934    4.0020 O   0  0  0  0  0  0
   -7.7758   27.8647    4.2650 C   0  0  0  0  0  0
   -6.3784   27.6169    4.6805 C   0  0  0  0  0  0
   -5.5940   28.6886    4.8613 C   0  0  0  0  0  0
   -4.2739   28.6793    5.2442 O   0  0  0  0  0  0
   -3.6833   27.4604    5.4682 C   0  0  0  0  0  0
   -2.3415   27.4721    5.8564 C   0  0  0  0  0  0
   -1.7360   26.2545    6.0846 C   0  0  0  0  0  0
   -2.4138   25.0651    5.9399 C   0  0  0  0  0  0
   -3.7374   25.0231    5.5582 C   0  0  0  0  0  0
   -4.3767   26.2468    5.3199 C   0  0  0  0  0  0
   -5.7938   26.2780    4.9080 C   0  0  0  0  0  0
   -6.4160   25.2341    4.7730 O   0  0  0  0  0  0
   -1.6313   23.9877    6.2133 O   0  0  0  0  0  0
   -0.3835   24.6306    6.5470 C   0  0  0  0  0  0
   -0.4442   26.0709    6.4669 O   0  0  0  0  0  0
  1  2  2  0  0  0
  2  3  1  0  0  0
  3  4  2  0  0  0
  4  5  1  0  0  0
  5  6  1  0  0  0
  6  7  2  0  0  0
  7  8  1  0  0  0
  8  9  2  0  0  0
  9 10  1  0  0  0
 10 11  2  0  0  0
 11 12  1  0  0  0
 12 13  2  0  0  0
  9 14  1  0  0  0
 14 15  1  0  0  0
 15 16  1  0  0  0
 12  3  1  0  0  0
 11  6  1  0  0  0
 16  8  1  0  0  0
M  END
>  <CHROM.0>
-59.88758699,68.98201197

>  <CHROM.1>
176.47821823,-4.09388064,26.44488020,5.38854851,2.81284203,-0.28539670,-0.04136276

>  <Name>
58120764-f33b-41e8-8bd7-f773af7f828a

>  <RI>
1.50254e+07

>  <Rbt.Current_Directory>
/data/work/jku/5V6S/work/40/8dba899c20c42488f2b1a17844994e

>  <Rbt.Executable>
rbdock ($Id: //depot/dev/client3/rdock/2013.1/src/exe/rbdock.cxx#4 $)

>  <Rbt.Library>
libRbt.so (2013.1, Build901 2013/11/27)

>  <Rbt.Parameter_File>
/rDock_2013.1_src/data/scripts/dock.prm

>  <Rbt.Receptor>
docking.prm

>  <SCORE>
-9.6661

>  <SCORE.INTER>
-8.17609

>  <SCORE.INTER.CONST>
1

>  <SCORE.INTER.POLAR>
0

>  <SCORE.INTER.REPUL>
0

>  <SCORE.INTER.ROT>
1

>  <SCORE.INTER.VDW>
-14.5761

>  <SCORE.INTER.norm>
-0.511006

>  <SCORE.INTRA>
0.0235758

>  <SCORE.INTRA.DIHEDRAL>
0.0482891

>  <SCORE.INTRA.DIHEDRAL.0>
1.52749e-07

>  <SCORE.INTRA.POLAR>
0

>  <SCORE.INTRA.POLAR.0>
0

>  <SCORE.INTRA.REPUL>
0

>  <SCORE.INTRA.REPUL.0>
0

>  <SCORE.INTRA.VDW>
-0.000568806

>  <SCORE.INTRA.VDW.0>
-0.320511

>  <SCORE.INTRA.norm>
0.00147349

>  <SCORE.RESTR>
5.99191e-05

>  <SCORE.RESTR.CAVITY>
5.99191e-05

>  <SCORE.RESTR.norm>
3.74494e-06

>  <SCORE.SYSTEM>
-1.51364

>  <SCORE.SYSTEM.CONST>
0

>  <SCORE.SYSTEM.DIHEDRAL>
0.39847

>  <SCORE.SYSTEM.POLAR>
-0.502975

>  <SCORE.SYSTEM.VDW>
-0.00276471

>  <SCORE.SYSTEM.norm>
-0.0946027

>  <SCORE.heavy>
16

>  <SCORE.norm>
-0.604131

>  <enum_code>
B

>  <enum_smi>
O=Cc1coc2cc3c(cc2c1=O)OCO3

>  <sha256>
003eea610e161960d540fa42700c685eece3db6e810f597e66cc5ea20df7b961

>  <std_smi>
O=Cc1coc2cc3c(cc2c1=O)OCO3

>  <uuid>
58120764-f33b-41e8-8bd7-f773af7f828a

$$$$
58120764-f33b-41e8-8bd7-f773af7f828a
  rDOCK(R)          3D
libRbt.so/2013.1/901 2013/11/27
 16 18  0  0  0  0  0  0  0  0999 V2000
   -1.9057   25.3919    5.8006 O   0  0  0  0  0  0
   -2.1521   26.5115    6.2262 C   0  0  0  0  0  0
   -1.9629   27.7660    5.4666 C   0  0  0  0  0  0
   -2.2483   28.9133    6.0981 C   0  0  0  0  0  0
   -2.1422   30.1808    5.5769 O   0  0  0  0  0  0
   -1.7018   30.3034    4.2824 C   0  0  0  0  0  0
   -1.6008   31.5994    3.7712 C   0  0  0  0  0  0
   -1.1597   31.7368    2.4720 C   0  0  0  0  0  0
   -0.8279   30.6491    1.6962 C   0  0  0  0  0  0
   -0.9177   29.3595    2.1739 C   0  0  0  0  0  0
   -1.3634   29.1918    3.4916 C   0  0  0  0  0  0
   -1.4841   27.8389    4.0696 C   0  0  0  0  0  0
   -1.1950   26.8579    3.3993 O   0  0  0  0  0  0
   -0.4183   31.0082    0.4508 O   0  0  0  0  0  0
   -0.5288   32.4447    0.5275 C   0  0  0  0  0  0
   -0.9995   32.9133    1.8095 O   0  0  0  0  0  0
  1  2  2  0  0  0
  2  3  1  0  0  0
  3  4  2  0  0  0
  4  5  1  0  0  0
  5  6  1  0  0  0
  6  7  2  0  0  0
  7  8  1  0  0  0
  8  9  2  0  0  0
  9 10  1  0  0  0
 10 11  2  0  0  0
 11 12  1  0  0  0
 12 13  2  0  0  0
  9 14  1  0  0  0
 14 15  1  0  0  0
 15 16  1  0  0  0
 12  3  1  0  0  0
 11  6  1  0  0  0
 16  8  1  0  0  0
M  END
>  <CHROM.0>
-59.88758699,68.14119117

>  <CHROM.1>
-178.17761130,-1.40329748,29.53543556,3.55604574,-2.11073129,1.23297702,-0.17375503

>  <Name>
58120764-f33b-41e8-8bd7-f773af7f828a

>  <RI>
1.50254e+07

>  <Rbt.Current_Directory>
/data/work/jku/5V6S/work/40/8dba899c20c42488f2b1a17844994e

>  <Rbt.Executable>
rbdock ($Id: //depot/dev/client3/rdock/2013.1/src/exe/rbdock.cxx#4 $)

>  <Rbt.Library>
libRbt.so (2013.1, Build901 2013/11/27)

>  <Rbt.Parameter_File>
/rDock_2013.1_src/data/scripts/dock.prm

>  <Rbt.Receptor>
docking.prm

>  <SCORE>
-9.96922

>  <SCORE.INTER>
-8.46468

>  <SCORE.INTER.CONST>
1

>  <SCORE.INTER.POLAR>
0

>  <SCORE.INTER.REPUL>
0

>  <SCORE.INTER.ROT>
1

>  <SCORE.INTER.VDW>
-14.8647

>  <SCORE.INTER.norm>
-0.529043

>  <SCORE.INTRA>
0.00632178

>  <SCORE.INTRA.DIHEDRAL>
0.0129501

>  <SCORE.INTRA.DIHEDRAL.0>
1.52749e-07

>  <SCORE.INTRA.POLAR>
0

>  <SCORE.INTRA.POLAR.0>
0

>  <SCORE.INTRA.REPUL>
0

>  <SCORE.INTRA.REPUL.0>
0

>  <SCORE.INTRA.VDW>
-0.00015326

>  <SCORE.INTRA.VDW.0>
-0.320511

>  <SCORE.INTRA.norm>
0.000395111

>  <SCORE.RESTR>
0

>  <SCORE.RESTR.CAVITY>
0

>  <SCORE.RESTR.norm>
0

>  <SCORE.SYSTEM>
-1.51086

>  <SCORE.SYSTEM.CONST>
0

>  <SCORE.SYSTEM.DIHEDRAL>
0.329782

>  <SCORE.SYSTEM.POLAR>
-0.502161

>  <SCORE.SYSTEM.VDW>
0.031599

>  <SCORE.SYSTEM.norm>
-0.0944285

>  <SCORE.heavy>
16

>  <SCORE.norm>
-0.623076

>  <enum_code>
B

>  <enum_smi>
O=Cc1coc2cc3c(cc2c1=O)OCO3

>  <sha256>
003eea610e161960d540fa42700c685eece3db6e810f597e66cc5ea20df7b961

>  <std_smi>
O=Cc1coc2cc3c(cc2c1=O)OCO3

>  <uuid>
58120764-f33b-41e8-8bd7-f773af7f828a

$$$$
58120764-f33b-41e8-8bd7-f773af7f828a
  rDOCK(R)          3D
libRbt.so/2013.1/901 2013/11/27
 16 18  0  0  0  0  0  0  0  0999 V2000
   -6.4603   27.8657    5.3838 O   0  0  0  0  0  0
   -5.2601   27.7917    5.6061 C   0  0  0  0  0  0
   -4.4312   26.5874    5.3841 C   0  0  0  0  0  0
   -3.1317   26.6714    5.7012 C   0  0  0  0  0  0
   -2.1937   25.6747    5.5736 O   0  0  0  0  0  0
   -2.6111   24.4663    5.0733 C   0  0  0  0  0  0
   -1.6431   23.4666    4.9513 C   0  0  0  0  0  0
   -2.0489   22.2478    4.4500 C   0  0  0  0  0  0
   -3.3533   22.0099    4.0799 C   0  0  0  0  0  0
   -4.3290   22.9770    4.1891 C   0  0  0  0  0  0
   -3.9432   24.2250    4.6958 C   0  0  0  0  0  0
   -4.9356   25.3082    4.8406 C   0  0  0  0  0  0
   -6.1000   25.1199    4.5183 O   0  0  0  0  0  0
   -3.5358   20.7464    3.6131 O   0  0  0  0  0  0
   -2.2002   20.2133    3.7303 C   0  0  0  0  0  0
   -1.2512   21.1630    4.2614 O   0  0  0  0  0  0
  1  2  2  0  0  0
  2  3  1  0  0  0
  3  4  2  0  0  0
  4  5  1  0  0  0
  5  6  1  0  0  0
  6  7  2  0  0  0
  7  8  1  0  0  0
  8  9  2  0  0  0
  9 10  1  0  0  0
 10 11  2  0  0  0
 11 12  1  0  0  0
 12 13  2  0  0  0
  9 14  1  0  0  0
 14 15  1  0  0  0
 15 16  1  0  0  0
 12  3  1  0  0  0
 11  6  1  0  0  0
 16  8  1  0  0  0
M  END
>  <CHROM.0>
-59.88758699,68.87225258

>  <CHROM.1>
-178.96607137,-3.60563242,24.13762795,4.74282609,2.03217830,-0.20641551,0.32564239

>  <Name>
58120764-f33b-41e8-8bd7-f773af7f828a

>  <RI>
1.50254e+07

>  <Rbt.Current_Directory>
/data/work/jku/5V6S/work/40/8dba899c20c42488f2b1a17844994e

>  <Rbt.Executable>
rbdock ($Id: //depot/dev/client3/rdock/2013.1/src/exe/rbdock.cxx#4 $)

>  <Rbt.Library>
libRbt.so (2013.1, Build901 2013/11/27)

>  <Rbt.Parameter_File>
/rDock_2013.1_src/data/scripts/dock.prm

>  <Rbt.Receptor>
docking.prm

>  <SCORE>
-9.48658

>  <SCORE.INTER>
-7.97495

>  <SCORE.INTER.CONST>
1

>  <SCORE.INTER.POLAR>
-0.415984

>  <SCORE.INTER.REPUL>
0

>  <SCORE.INTER.ROT>
1

>  <SCORE.INTER.VDW>
-12.9606

>  <SCORE.INTER.norm>
-0.498435

>  <SCORE.INTRA>
0.00203586

>  <SCORE.INTRA.DIHEDRAL>
0.00417057

>  <SCORE.INTRA.DIHEDRAL.0>
1.52749e-07

>  <SCORE.INTRA.POLAR>
0

>  <SCORE.INTRA.POLAR.0>
0

>  <SCORE.INTRA.REPUL>
0

>  <SCORE.INTRA.REPUL.0>
0

>  <SCORE.INTRA.VDW>
-4.94272e-05

>  <SCORE.INTRA.VDW.0>
-0.320511

>  <SCORE.INTRA.norm>
0.000127241

>  <SCORE.RESTR>
0

>  <SCORE.RESTR.CAVITY>
0

>  <SCORE.RESTR.norm>
0

>  <SCORE.SYSTEM>
-1.51366

>  <SCORE.SYSTEM.CONST>
0

>  <SCORE.SYSTEM.DIHEDRAL>
0.389148

>  <SCORE.SYSTEM.POLAR>
-0.502901

>  <SCORE.SYSTEM.VDW>
0.00162829

>  <SCORE.SYSTEM.norm>
-0.0946039

>  <SCORE.heavy>
16

>  <SCORE.norm>
-0.592911

>  <enum_code>
B

>  <enum_smi>
O=Cc1coc2cc3c(cc2c1=O)OCO3

>  <sha256>
003eea610e161960d540fa42700c685eece3db6e810f597e66cc5ea20df7b961

>  <std_smi>
O=Cc1coc2cc3c(cc2c1=O)OCO3

>  <uuid>
58120764-f33b-41e8-8bd7-f773af7f828a

$$$$
15c4922b-136d-4da3-908e-bac594800d6c
  rDOCK(R)          3D
libRbt.so/2013.1/901 2013/11/27
 16 17  0  0  0  0  0  0  0  0999 V2000
   -3.3182   30.2325    4.1822 O   0  0  0  0  0  0
   -2.8108   29.1151    4.0660 C   0  0  0  0  0  0
   -1.4021   29.0174    3.5048 C   0  0  0  0  0  0
   -1.3188   29.3899    1.7321 S   0  0  0  0  0  0
   -0.8110   31.0600    1.7882 C   0  0  0  0  0  0
   -0.0623   31.5714    0.8368 N   0  0  0  0  0  0
    0.2008   32.9109    1.0505 N   0  0  0  0  0  0
   -0.3629   33.3466    2.1567 C   0  0  0  0  0  0
   -1.2430   32.1588    3.0276 S   0  0  0  0  0  0
   -3.5084   27.8924    4.4960 C   0  0  0  0  0  0
   -3.0138   26.5436    4.3324 C   0  0  0  0  0  0
   -3.8801   25.6064    4.8355 C   0  0  0  0  0  0
   -3.5405   23.7271    4.7923 Br  0  0  0  0  0  0
   -5.2764   26.2817    5.4991 S   0  0  0  0  0  0
   -4.7470   27.8555    5.1150 C   0  0  0  0  0  0
   -5.8745   29.3596    5.5145 Br  0  0  0  0  0  0
  1  2  2  0  0  0
  2  3  1  0  0  0
  3  4  1  0  0  0
  4  5  1  0  0  0
  5  6  2  0  0  0
  6  7  1  0  0  0
  7  8  2  0  0  0
  8  9  1  0  0  0
  2 10  1  0  0  0
 10 11  1  0  0  0
 11 12  2  0  0  0
 12 13  1  0  0  0
 12 14  1  0  0  0
 14 15  1  0  0  0
 15 16  1  0  0  0
  9  5  1  0  0  0
 15 10  2  0  0  0
M  END
>  <CHROM.0>
-59.88758699,68.78209741

>  <CHROM.1>
-71.25128406,98.03135316,148.83806599,176.65055077,-3.26809838,28.31949472
4.05694911,1.03620857,0.59527062,-0.09835202

>  <Name>
15c4922b-136d-4da3-908e-bac594800d6c

>  <RI>
3.37646e+07

>  <Rbt.Current_Directory>
/data/work/jku/5V6S/work/40/8dba899c20c42488f2b1a17844994e

>  <Rbt.Executable>
rbdock ($Id: //depot/dev/client3/rdock/2013.1/src/exe/rbdock.cxx#4 $)

>  <Rbt.Library>
libRbt.so (2013.1, Build901 2013/11/27)

>  <Rbt.Parameter_File>
/rDock_2013.1_src/data/scripts/dock.prm

>  <Rbt.Receptor>
docking.prm

>  <SCORE>
-13.7014

>  <SCORE.INTER>
-11.405

>  <SCORE.INTER.CONST>
1

>  <SCORE.INTER.POLAR>
0

>  <SCORE.INTER.REPUL>
0

>  <SCORE.INTER.ROT>
4

>  <SCORE.INTER.VDW>
-20.805

>  <SCORE.INTER.norm>
-0.71281

>  <SCORE.INTRA>
-0.782833

>  <SCORE.INTRA.DIHEDRAL>
-4.86209

>  <SCORE.INTRA.DIHEDRAL.0>
8.10841

>  <SCORE.INTRA.POLAR>
0

>  <SCORE.INTRA.POLAR.0>
0

>  <SCORE.INTRA.REPUL>
0

>  <SCORE.INTRA.REPUL.0>
0

>  <SCORE.INTRA.VDW>
1.64821

>  <SCORE.INTRA.VDW.0>
-2.77953

>  <SCORE.INTRA.norm>
-0.0489271

>  <SCORE.RESTR>
0

>  <SCORE.RESTR.CAVITY>
0

>  <SCORE.RESTR.norm>
0

>  <SCORE.SYSTEM>
-1.51359

>  <SCORE.SYSTEM.CONST>
0

>  <SCORE.SYSTEM.DIHEDRAL>
0.38157

>  <SCORE.SYSTEM.POLAR>
-0.502833

>  <SCORE.SYSTEM.VDW>
0.00525732

>  <SCORE.SYSTEM.norm>
-0.0945995

>  <SCORE.heavy>
16

>  <SCORE.norm>
-0.856336

>  <enum_code>
B

>  <enum_smi>
O=C(CSc1nncs1)c1cc(Br)sc1Br

>  <sha256>
4fbc411484235e629e48d8624ec40f34931f7851c15a0ea030d44a023231e732

>  <std_smi>
O=C(CSc1nncs1)c1cc(Br)sc1Br

>  <uuid>
15c4922b-136d-4da3-908e-bac594800d6c

$$$$
15c4922b-136d-4da3-908e-bac594800d6c
  rDOCK(R)          3D
libRbt.so/2013.1/901 2013/11/27
 16 17  0  0  0  0  0  0  0  0999 V2000
   -4.2517   29.0614    5.8015 O   0  0  0  0  0  0
   -3.0775   28.6872    5.8262 C   0  0  0  0  0  0
   -2.0369   29.6163    6.4287 C   0  0  0  0  0  0
   -2.2849   31.3519    5.9662 S   0  0  0  0  0  0
   -1.7190   31.3181    4.3144 C   0  0  0  0  0  0
   -1.5452   30.1791    3.6823 N   0  0  0  0  0  0
   -1.1262   30.3700    2.3795 N   0  0  0  0  0  0
   -1.0025   31.6478    2.0911 C   0  0  0  0  0  0
   -1.3722   32.7128    3.3844 S   0  0  0  0  0  0
   -2.6704   27.3604    5.3359 C   0  0  0  0  0  0
   -1.3189   26.9673    5.0052 C   0  0  0  0  0  0
   -1.2445   25.6655    4.5790 C   0  0  0  0  0  0
    0.3881   24.8164    4.0663 Br  0  0  0  0  0  0
   -2.7415   24.8880    4.5553 S   0  0  0  0  0  0
   -3.5265   26.2945    5.1126 C   0  0  0  0  0  0
   -5.4359   26.2923    5.3300 Br  0  0  0  0  0  0
  1  2  2  0  0  0
  2  3  1  0  0  0
  3  4  1  0  0  0
  4  5  1  0  0  0
  5  6  2  0  0  0
  6  7  1  0  0  0
  7  8  2  0  0  0
  8  9  1  0  0  0
  2 10  1  0  0  0
 10 11  1  0  0  0
 11 12  2  0  0  0
 12 13  1  0  0  0
 12 14  1  0  0  0
 14 15  1  0  0  0
 15 16  1  0  0  0
  9  5  1  0  0  0
 15 10  2  0  0  0
M  END
>  <CHROM.0>
-59.88758699,68.85135780

>  <CHROM.1>
-41.03049364,-74.98531388,14.50539697,163.09770768,-2.29857341,27.74324701
4.64662303,1.52544727,0.34387502,-0.05854400

>  <Name>
15c4922b-136d-4da3-908e-bac594800d6c

>  <RI>
3.37646e+07

>  <Rbt.Current_Directory>
/data/work/jku/5V6S/work/40/8dba899c20c42488f2b1a17844994e

>  <Rbt.Executable>
rbdock ($Id: //depot/dev/client3/rdock/2013.1/src/exe/rbdock.cxx#4 $)

>  <Rbt.Library>
libRbt.so (2013.1, Build901 2013/11/27)

>  <Rbt.Parameter_File>
/rDock_2013.1_src/data/scripts/dock.prm

>  <Rbt.Receptor>
docking.prm

>  <SCORE>
-14.9523

>  <SCORE.INTER>
-12.2234

>  <SCORE.INTER.CONST>
1

>  <SCORE.INTER.POLAR>
0

>  <SCORE.INTER.REPUL>
0.00113925

>  <SCORE.INTER.ROT>
4

>  <SCORE.INTER.VDW>
-21.6291

>  <SCORE.INTER.norm>
-0.763964

>  <SCORE.INTRA>
-1.21525

>  <SCORE.INTRA.DIHEDRAL>
-5.64875

>  <SCORE.INTRA.DIHEDRAL.0>
8.10841

>  <SCORE.INTRA.POLAR>
0

>  <SCORE.INTRA.POLAR.0>
0

>  <SCORE.INTRA.REPUL>
0

>  <SCORE.INTRA.REPUL.0>
0

>  <SCORE.INTRA.VDW>
1.60913

>  <SCORE.INTRA.VDW.0>
-2.77953

>  <SCORE.INTRA.norm>
-0.0759529

>  <SCORE.RESTR>
0

>  <SCORE.RESTR.CAVITY>
0

>  <SCORE.RESTR.norm>
0

>  <SCORE.SYSTEM>
-1.51365

>  <SCORE.SYSTEM.CONST>
0

>  <SCORE.SYSTEM.DIHEDRAL>
0.387385

>  <SCORE.SYSTEM.POLAR>
-0.502886

>  <SCORE.SYSTEM.VDW>
0.00246771

>  <SCORE.SYSTEM.norm>
-0.0946033

>  <SCORE.heavy>
16

>  <SCORE.norm>
-0.934521

>  <enum_code>
B

>  <enum_smi>
O=C(CSc1nncs1)c1cc(Br)sc1Br

>  <sha256>
4fbc411484235e629e48d8624ec40f34931f7851c15a0ea030d44a023231e732

>  <std_smi>
O=C(CSc1nncs1)c1cc(Br)sc1Br

>  <uuid>
15c4922b-136d-4da3-908e-bac594800d6c

$$$$
15c4922b-136d-4da3-908e-bac594800d6c
  rDOCK(R)          3D
libRbt.so/2013.1/901 2013/11/27
 16 17  0  0  0  0  0  0  0  0999 V2000
   -2.1545   28.4601    5.2886 O   0  0  0  0  0  0
   -1.7902   28.6303    4.1233 C   0  0  0  0  0  0
   -1.6548   27.4124    3.2248 C   0  0  0  0  0  0
   -0.4061   26.2354    3.8109 S   0  0  0  0  0  0
   -1.3762   25.2636    4.8900 C   0  0  0  0  0  0
   -0.8901   24.8311    6.0319 N   0  0  0  0  0  0
   -1.8243   24.1105    6.7511 N   0  0  0  0  0  0
   -2.9733   24.0330    6.1148 C   0  0  0  0  0  0
   -3.0011   24.8172    4.5890 S   0  0  0  0  0  0
   -1.5321   29.9712    3.5740 C   0  0  0  0  0  0
   -1.0303   30.2512    2.2472 C   0  0  0  0  0  0
   -0.8949   31.5964    2.0145 C   0  0  0  0  0  0
   -0.2632   32.3218    0.3641 Br  0  0  0  0  0  0
   -1.3453   32.5469    3.3335 S   0  0  0  0  0  0
   -1.7260   31.1631    4.2527 C   0  0  0  0  0  0
   -2.3191   31.3646    6.0695 Br  0  0  0  0  0  0
  1  2  2  0  0  0
  2  3  1  0  0  0
  3  4  1  0  0  0
  4  5  1  0  0  0
  5  6  2  0  0  0
  6  7  1  0  0  0
  7  8  2  0  0  0
  8  9  1  0  0  0
  2 10  1  0  0  0
 10 11  1  0  0  0
 11 12  2  0  0  0
 12 13  1  0  0  0
 12 14  1  0  0  0
 14 15  1  0  0  0
 15 16  1  0  0  0
  9  5  1  0  0  0
 15 10  2  0  0  0
M  END
>  <CHROM.0>
-59.88758699,69.53374481

>  <CHROM.1>
-62.27355523,87.56127833,-141.18222262,176.23361127,-1.48566647,29.39661966
3.83501324,2.00843847,-1.20588346,3.08559124

>  <Name>
15c4922b-136d-4da3-908e-bac594800d6c

>  <RI>
3.37646e+07

>  <Rbt.Current_Directory>
/data/work/jku/5V6S/work/40/8dba899c20c42488f2b1a17844994e

>  <Rbt.Executable>
rbdock ($Id: //depot/dev/client3/rdock/2013.1/src/exe/rbdock.cxx#4 $)

>  <Rbt.Library>
libRbt.so (2013.1, Build901 2013/11/27)

>  <Rbt.Parameter_File>
/rDock_2013.1_src/data/scripts/dock.prm

>  <Rbt.Receptor>
docking.prm

>  <SCORE>
-14.8476

>  <SCORE.INTER>
-12.2661

>  <SCORE.INTER.CONST>
1

>  <SCORE.INTER.POLAR>
0

>  <SCORE.INTER.REPUL>
0

>  <SCORE.INTER.ROT>
4

>  <SCORE.INTER.VDW>
-21.6661

>  <SCORE.INTER.norm>
-0.766634

>  <SCORE.INTRA>
-1.0696

>  <SCORE.INTRA.DIHEDRAL>
-5.1997

>  <SCORE.INTRA.DIHEDRAL.0>
8.10841

>  <SCORE.INTRA.POLAR>
0

>  <SCORE.INTRA.POLAR.0>
0

>  <SCORE.INTRA.REPUL>
0

>  <SCORE.INTRA.REPUL.0>
0

>  <SCORE.INTRA.VDW>
1.53025

>  <SCORE.INTRA.VDW.0>
-2.77953

>  <SCORE.INTRA.norm>
-0.0668501

>  <SCORE.RESTR>
0

>  <SCORE.RESTR.CAVITY>
0

>  <SCORE.RESTR.norm>
0

>  <SCORE.SYSTEM>
-1.51184

>  <SCORE.SYSTEM.CONST>
0

>  <SCORE.SYSTEM.DIHEDRAL>
0.44693

>  <SCORE.SYSTEM.POLAR>
-0.503197

>  <SCORE.SYSTEM.VDW>
-0.0244327

>  <SCORE.SYSTEM.norm>
-0.0944899

>  <SCORE.heavy>
16

>  <SCORE.norm>
-0.927974

>  <enum_code>
B

>  <enum_smi>
O=C(CSc1nncs1)c1cc(Br)sc1Br

>  <sha256>
4fbc411484235e629e48d8624ec40f34931f7851c15a0ea030d44a023231e732

>  <std_smi>
O=C(CSc1nncs1)c1cc(Br)sc1Br

>  <uuid>
15c4922b-136d-4da3-908e-bac594800d6c

$$$$
15c4922b-136d-4da3-908e-bac594800d6c
  rDOCK(R)          3D
libRbt.so/2013.1/901 2013/11/27
 16 17  0  0  0  0  0  0  0  0999 V2000
   -1.2013   25.4325    4.3734 O   0  0  0  0  0  0
   -2.0443   26.3194    4.2242 C   0  0  0  0  0  0
   -1.5623   27.7324    3.9414 C   0  0  0  0  0  0
   -0.8800   27.9270    2.2726 S   0  0  0  0  0  0
   -1.0893   29.6463    2.0490 C   0  0  0  0  0  0
   -1.8467   30.3469    2.8630 N   0  0  0  0  0  0
   -1.8538   31.6892    2.5351 N   0  0  0  0  0  0
   -1.0999   31.9371    1.4856 C   0  0  0  0  0  0
   -0.3372   30.5569    0.8098 S   0  0  0  0  0  0
   -3.4886   26.0387    4.2656 C   0  0  0  0  0  0
   -4.5375   27.0326    4.2144 C   0  0  0  0  0  0
   -5.7888   26.4726    4.2662 C   0  0  0  0  0  0
   -7.4027   27.4931    4.2146 Br  0  0  0  0  0  0
   -5.7588   24.7895    4.3780 S   0  0  0  0  0  0
   -4.0545   24.7784    4.3672 C   0  0  0  0  0  0
   -3.1156   23.1097    4.5315 Br  0  0  0  0  0  0
  1  2  2  0  0  0
  2  3  1  0  0  0
  3  4  1  0  0  0
  4  5  1  0  0  0
  5  6  2  0  0  0
  6  7  1  0  0  0
  7  8  2  0  0  0
  8  9  1  0  0  0
  2 10  1  0  0  0
 10 11  1  0  0  0
 11 12  2  0  0  0
 12 13  1  0  0  0
 12 14  1  0  0  0
 14 15  1  0  0  0
 15 16  1  0  0  0
  9  5  1  0  0  0
 15 10  2  0  0  0
M  END
>  <CHROM.0>
-59.88758699,68.51529964

>  <CHROM.1>
71.72710246,156.64878641,-13.18060485,174.40866522,-3.56949275,26.85738592
3.60736145,-2.18009530,0.21236121,-0.30566811

>  <Name>
15c4922b-136d-4da3-908e-bac594800d6c

>  <RI>
3.37646e+07

>  <Rbt.Current_Directory>
/data/work/jku/5V6S/work/40/8dba899c20c42488f2b1a17844994e

>  <Rbt.Executable>
rbdock ($Id: //depot/dev/client3/rdock/2013.1/src/exe/rbdock.cxx#4 $)

>  <Rbt.Library>
libRbt.so (2013.1, Build901 2013/11/27)

>  <Rbt.Parameter_File>
/rDock_2013.1_src/data/scripts/dock.prm

>  <Rbt.Receptor>
docking.prm

>  <SCORE>
-12.8196

>  <SCORE.INTER>
-10.1897

>  <SCORE.INTER.CONST>
1

>  <SCORE.INTER.POLAR>
0

>  <SCORE.INTER.REPUL>
0.00344546

>  <SCORE.INTER.ROT>
4

>  <SCORE.INTER.VDW>
-19.6069

>  <SCORE.INTER.norm>
-0.636857

>  <SCORE.INTRA>
-1.11697

>  <SCORE.INTRA.DIHEDRAL>
-6.45639

>  <SCORE.INTRA.DIHEDRAL.0>
8.10841

>  <SCORE.INTRA.POLAR>
0

>  <SCORE.INTRA.POLAR.0>
0

>  <SCORE.INTRA.REPUL>
0

>  <SCORE.INTRA.REPUL.0>
0

>  <SCORE.INTRA.VDW>
2.11123

>  <SCORE.INTRA.VDW.0>
-2.77953

>  <SCORE.INTRA.norm>
-0.0698106

>  <SCORE.RESTR>
0

>  <SCORE.RESTR.CAVITY>
0

>  <SCORE.RESTR.norm>
0

>  <SCORE.SYSTEM>
-1.51293

>  <SCORE.SYSTEM.CONST>
0

>  <SCORE.SYSTEM.DIHEDRAL>
0.359567

>  <SCORE.SYSTEM.POLAR>
-0.502594

>  <SCORE.SYSTEM.VDW>
0.0161067

>  <SCORE.SYSTEM.norm>
-0.0945581

>  <SCORE.heavy>
16

>  <SCORE.norm>
-0.801226

>  <enum_code>
B

>  <enum_smi>
O=C(CSc1nncs1)c1cc(Br)sc1Br

>  <sha256>
4fbc411484235e629e48d8624ec40f34931f7851c15a0ea030d44a023231e732

>  <std_smi>
O=C(CSc1nncs1)c1cc(Br)sc1Br

>  <uuid>
15c4922b-136d-4da3-908e-bac594800d6c

$$$$
15c4922b-136d-4da3-908e-bac594800d6c
  rDOCK(R)          3D
libRbt.so/2013.1/901 2013/11/27
 16 17  0  0  0  0  0  0  0  0999 V2000
   -1.2543   28.9538    4.0141 O   0  0  0  0  0  0
   -2.2212   28.5189    3.3852 C   0  0  0  0  0  0
   -2.3515   28.8878    1.9168 C   0  0  0  0  0  0
   -0.7620   28.8925    1.0442 S   0  0  0  0  0  0
   -0.3756   30.5943    1.1098 C   0  0  0  0  0  0
    0.5258   31.1145    0.3073 N   0  0  0  0  0  0
    0.6595   32.4770    0.4947 N   0  0  0  0  0  0
   -0.1493   32.9202    1.4331 C   0  0  0  0  0  0
   -1.1226   31.7135    2.1680 S   0  0  0  0  0  0
   -3.2144   27.6240    4.0008 C   0  0  0  0  0  0
   -4.4971   27.2769    3.4309 C   0  0  0  0  0  0
   -5.2070   26.4173    4.2304 C   0  0  0  0  0  0
   -6.9394   25.7491    3.7816 Br  0  0  0  0  0  0
   -4.3940   26.0073    5.6506 S   0  0  0  0  0  0
   -3.0674   26.9880    5.2226 C   0  0  0  0  0  0
   -1.5801   27.1511    6.4286 Br  0  0  0  0  0  0
  1  2  2  0  0  0
  2  3  1  0  0  0
  3  4  1  0  0  0
  4  5  1  0  0  0
  5  6  2  0  0  0
  6  7  1  0  0  0
  7  8  2  0  0  0
  8  9  1  0  0  0
  2 10  1  0  0  0
 10 11  1  0  0  0
 11 12  2  0  0  0
 12 13  1  0  0  0
 12 14  1  0  0  0
 14 15  1  0  0  0
 15 16  1  0  0  0
  9  5  1  0  0  0
 15 10  2  0  0  0
M  END
>  <CHROM.0>
-59.88758699,68.73871488

>  <CHROM.1>
39.16308091,-97.07877526,-162.43329209,167.40557030,-2.86950176,28.06622329
3.70195053,-0.73816725,0.47579997,2.11726550

>  <Name>
15c4922b-136d-4da3-908e-bac594800d6c

>  <RI>
3.37646e+07

>  <Rbt.Current_Directory>
/data/work/jku/5V6S/work/40/8dba899c20c42488f2b1a17844994e

>  <Rbt.Executable>
rbdock ($Id: //depot/dev/client3/rdock/2013.1/src/exe/rbdock.cxx#4 $)

>  <Rbt.Library>
libRbt.so (2013.1, Build901 2013/11/27)

>  <Rbt.Parameter_File>
/rDock_2013.1_src/data/scripts/dock.prm

>  <Rbt.Receptor>
docking.prm

>  <SCORE>
-14.8027

>  <SCORE.INTER>
-12.8845

>  <SCORE.INTER.CONST>
1

>  <SCORE.INTER.POLAR>
0

>  <SCORE.INTER.REPUL>
0.0070267

>  <SCORE.INTER.ROT>
4

>  <SCORE.INTER.VDW>
-22.3197

>  <SCORE.INTER.norm>
-0.805283

>  <SCORE.INTRA>
-0.404668

>  <SCORE.INTRA.DIHEDRAL>
-4.7351

>  <SCORE.INTRA.DIHEDRAL.0>
8.10841

>  <SCORE.INTRA.POLAR>
0

>  <SCORE.INTRA.POLAR.0>
0

>  <SCORE.INTRA.REPUL>
0

>  <SCORE.INTRA.REPUL.0>
0

>  <SCORE.INTRA.VDW>
1.96288

>  <SCORE.INTRA.VDW.0>
-2.77953

>  <SCORE.INTRA.norm>
-0.0252918

>  <SCORE.RESTR>
0

>  <SCORE.RESTR.CAVITY>
0

>  <SCORE.RESTR.norm>
0

>  <SCORE.SYSTEM>
-1.51353

>  <SCORE.SYSTEM.CONST>
0

>  <SCORE.SYSTEM.DIHEDRAL>
0.377949

>  <SCORE.SYSTEM.POLAR>
-0.502799

>  <SCORE.SYSTEM.VDW>
0.00701027

>  <SCORE.SYSTEM.norm>
-0.0945956

>  <SCORE.heavy>
16

>  <SCORE.norm>
-0.92517

>  <enum_code>
B

>  <enum_smi>
O=C(CSc1nncs1)c1cc(Br)sc1Br

>  <sha256>
4fbc411484235e629e48d8624ec40f34931f7851c15a0ea030d44a023231e732

>  <std_smi>
O=C(CSc1nncs1)c1cc(Br)sc1Br

>  <uuid>
15c4922b-136d-4da3-908e-bac594800d6c

$$$$
81b8485a-b03e-413a-82d3-c68eac9f36f9
  rDOCK(R)          3D
libRbt.so/2013.1/901 2013/11/27
 17 18  0  0  0  0  0  0  0  0999 V2000
   -2.1679   27.9132    5.8458 O   0  0  0  0  0  0
   -2.7935   26.6798    5.8212 C   0  0  0  0  0  0
   -2.1243   25.5456    6.0987 C   0  0  0  0  0  0
   -2.8332   23.9600    6.0390 S   0  0  0  0  0  0
   -1.8635   23.2273    4.7760 C   0  0  0  0  0  0
   -0.6960   23.6908    4.3784 N   0  0  0  0  0  0
   -0.1447   22.9317    3.3643 N   0  0  0  0  0  0
   -0.9258   21.9275    3.0311 C   0  0  0  0  0  0
   -2.3851   21.8280    3.9241 S   0  0  0  0  0  0
   -4.1718   26.7872    5.4517 C   0  0  0  0  0  0
   -4.9486   25.6868    4.9619 C   0  0  0  0  0  0
   -6.2373   26.0700    4.6841 C   0  0  0  0  0  0
   -7.5741   24.8738    4.0244 Br  0  0  0  0  0  0
   -6.5287   27.7124    4.9823 S   0  0  0  0  0  0
   -4.9195   27.9461    5.4887 C   0  0  0  0  0  0
   -4.2843   29.6727    6.0347 Br  0  0  0  0  0  0
   -1.2351   27.7929    6.0912 H   0  0  0  0  0  0
  1  2  1  0  0  0
  2  3  2  0  0  0
  3  4  1  0  0  0
  4  5  1  0  0  0
  5  6  2  0  0  0
  6  7  1  0  0  0
  7  8  2  0  0  0
  8  9  1  0  0  0
  2 10  1  0  0  0
 10 11  1  0  0  0
 11 12  2  0  0  0
 12 13  1  0  0  0
 12 14  1  0  0  0
 14 15  1  0  0  0
 15 16  1  0  0  0
  9  5  1  0  0  0
 15 10  2  0  0  0
  1 17  1  0  0  0
M  END
>  <CHROM.0>
-59.88758699,69.69202646

>  <CHROM.1>
-0.49318720,117.60649799,18.31478016,160.65350521,-4.28875297,25.90461843
4.97209399,-2.10197364,0.15737328,-2.82136295

>  <Name>
81b8485a-b03e-413a-82d3-c68eac9f36f9

>  <RI>
2.20705e+07

>  <Rbt.Current_Directory>
/data/work/jku/5V6S/work/40/8dba899c20c42488f2b1a17844994e

>  <Rbt.Executable>
rbdock ($Id: //depot/dev/client3/rdock/2013.1/src/exe/rbdock.cxx#4 $)

>  <Rbt.Library>
libRbt.so (2013.1, Build901 2013/11/27)

>  <Rbt.Parameter_File>
/rDock_2013.1_src/data/scripts/dock.prm

>  <Rbt.Receptor>
docking.prm

>  <SCORE>
-14.9219

>  <SCORE.INTER>
-12.8254

>  <SCORE.INTER.CONST>
1

>  <SCORE.INTER.POLAR>
0

>  <SCORE.INTER.REPUL>
0

>  <SCORE.INTER.ROT>
3

>  <SCORE.INTER.VDW>
-21.2254

>  <SCORE.INTER.norm>
-0.801587

>  <SCORE.INTRA>
-0.585682

>  <SCORE.INTRA.DIHEDRAL>
-6.60936

>  <SCORE.INTRA.DIHEDRAL.0>
11.2649

>  <SCORE.INTRA.POLAR>
0

>  <SCORE.INTRA.POLAR.0>
0

>  <SCORE.INTRA.REPUL>
0

>  <SCORE.INTRA.REPUL.0>
0

>  <SCORE.INTRA.VDW>
2.719

>  <SCORE.INTRA.VDW.0>
-1.60203

>  <SCORE.INTRA.norm>
-0.0366051

>  <SCORE.RESTR>
0

>  <SCORE.RESTR.CAVITY>
0

>  <SCORE.RESTR.norm>
0

>  <SCORE.SYSTEM>
-1.5108

>  <SCORE.SYSTEM.CONST>
0

>  <SCORE.SYSTEM.DIHEDRAL>
0.461321

>  <SCORE.SYSTEM.POLAR>
-0.503216

>  <SCORE.SYSTEM.VDW>
-0.0305225

>  <SCORE.SYSTEM.norm>
-0.0944249

>  <SCORE.heavy>
16

>  <SCORE.norm>
-0.932617

>  <enum_code>
T

>  <enum_smi>
OC(=CSc1nncs1)c1cc(Br)sc1Br

>  <sha256>
4fbc411484235e629e48d8624ec40f34931f7851c15a0ea030d44a023231e732

>  <std_smi>
O=C(CSc1nncs1)c1cc(Br)sc1Br

>  <uuid>
81b8485a-b03e-413a-82d3-c68eac9f36f9

$$$$
81b8485a-b03e-413a-82d3-c68eac9f36f9
  rDOCK(R)          3D
libRbt.so/2013.1/901 2013/11/27
 17 18  0  0  0  0  0  0  0  0999 V2000
   -4.0441   29.9694    2.8466 O   0  0  0  0  0  0
   -2.7370   29.5712    2.6320 C   0  0  0  0  0  0
   -2.3807   28.2740    2.6733 C   0  0  0  0  0  0
   -0.7516   27.7068    2.4624 S   0  0  0  0  0  0
   -0.6215   26.6062    3.8203 C   0  0  0  0  0  0
   -1.3705   26.6759    4.9020 N   0  0  0  0  0  0
   -1.0598   25.6940    5.8228 N   0  0  0  0  0  0
   -0.0796   24.9258    5.4002 C   0  0  0  0  0  0
    0.5363   25.3357    3.8544 S   0  0  0  0  0  0
   -1.8703   30.6859    2.3998 C   0  0  0  0  0  0
   -1.1570   30.8927    1.1739 C   0  0  0  0  0  0
   -0.4006   32.0373    1.2234 C   0  0  0  0  0  0
    0.6788   32.6516   -0.2294 Br  0  0  0  0  0  0
   -0.5155   32.8548    2.7033 S   0  0  0  0  0  0
   -1.5858   31.6792    3.3141 C   0  0  0  0  0  0
   -2.2781   31.7896    5.1005 Br  0  0  0  0  0  0
   -4.0964   30.9381    2.7872 H   0  0  0  0  0  0
  1  2  1  0  0  0
  2  3  2  0  0  0
  3  4  1  0  0  0
  4  5  1  0  0  0
  5  6  2  0  0  0
  6  7  1  0  0  0
  7  8  2  0  0  0
  8  9  1  0  0  0
  2 10  1  0  0  0
 10 11  1  0  0  0
 11 12  2  0  0  0
 12 13  1  0  0  0
 12 14  1  0  0  0
 14 15  1  0  0  0
 15 16  1  0  0  0
  9  5  1  0  0  0
 15 10  2  0  0  0
  1 17  1  0  0  0
M  END
>  <CHROM.0>
-59.88758699,-63.17840976

>  <CHROM.1>
179.26156520,132.19766064,-22.77371600,-117.34103785,-0.96933505,30.11739252
2.89460868,1.70728570,-0.94431950,2.75789608

>  <Name>
81b8485a-b03e-413a-82d3-c68eac9f36f9

>  <RI>
2.20705e+07

>  <Rbt.Current_Directory>
/data/work/jku/5V6S/work/40/8dba899c20c42488f2b1a17844994e

>  <Rbt.Executable>
rbdock ($Id: //depot/dev/client3/rdock/2013.1/src/exe/rbdock.cxx#4 $)

>  <Rbt.Library>
libRbt.so (2013.1, Build901 2013/11/27)

>  <Rbt.Parameter_File>
/rDock_2013.1_src/data/scripts/dock.prm

>  <Rbt.Receptor>
docking.prm

>  <SCORE>
-13.9188

>  <SCORE.INTER>
-15.5205

>  <SCORE.INTER.CONST>
1

>  <SCORE.INTER.POLAR>
0

>  <SCORE.INTER.REPUL>
0

>  <SCORE.INTER.ROT>
3

>  <SCORE.INTER.VDW>
-23.9205

>  <SCORE.INTER.norm>
-0.970031

>  <SCORE.INTRA>
0.576929

>  <SCORE.INTRA.DIHEDRAL>
0.701356

>  <SCORE.INTRA.DIHEDRAL.0>
11.2649

>  <SCORE.INTRA.POLAR>
0

>  <SCORE.INTRA.POLAR.0>
0

>  <SCORE.INTRA.REPUL>
0

>  <SCORE.INTRA.REPUL.0>
0

>  <SCORE.INTRA.VDW>
0.226251

>  <SCORE.INTRA.VDW.0>
-1.60203

>  <SCORE.INTRA.norm>
0.0360581

>  <SCORE.RESTR>
0.00122529

>  <SCORE.RESTR.CAVITY>
0.00122529

>  <SCORE.RESTR.norm>
7.65806e-05

>  <SCORE.SYSTEM>
1.02352

>  <SCORE.SYSTEM.CONST>
0

>  <SCORE.SYSTEM.DIHEDRAL>
0.0573691

>  <SCORE.SYSTEM.REPUL>
0.145505

>  <SCORE.SYSTEM.VDW>
0.267309

>  <SCORE.SYSTEM.norm>
0.06397

>  <SCORE.heavy>
16

>  <SCORE.norm>
-0.869926

>  <enum_code>
T

>  <enum_smi>
OC(=CSc1nncs1)c1cc(Br)sc1Br

>  <sha256>
4fbc411484235e629e48d8624ec40f34931f7851c15a0ea030d44a023231e732

>  <std_smi>
O=C(CSc1nncs1)c1cc(Br)sc1Br

>  <uuid>
81b8485a-b03e-413a-82d3-c68eac9f36f9

$$$$
81b8485a-b03e-413a-82d3-c68eac9f36f9
  rDOCK(R)          3D
libRbt.so/2013.1/901 2013/11/27
 17 18  0  0  0  0  0  0  0  0999 V2000
    0.0167   29.2778    0.5465 O   0  0  0  0  0  0
   -0.7103   29.2544    1.7230 C   0  0  0  0  0  0
   -0.8967   28.1138    2.4124 C   0  0  0  0  0  0
   -1.8382   28.0017    3.8689 S   0  0  0  0  0  0
   -1.1514   26.5539    4.5790 C   0  0  0  0  0  0
   -1.5118   26.0613    5.7467 N   0  0  0  0  0  0
   -0.8105   24.9175    6.0757 N   0  0  0  0  0  0
    0.0598   24.5974    5.1432 C   0  0  0  0  0  0
    0.0905   25.6579    3.7975 S   0  0  0  0  0  0
   -1.2245   30.5469    2.0590 C   0  0  0  0  0  0
   -2.3926   30.7497    2.8644 C   0  0  0  0  0  0
   -2.6602   32.0862    3.0281 C   0  0  0  0  0  0
   -4.1315   32.7494    4.0521 Br  0  0  0  0  0  0
   -1.5569   33.0948    2.2299 S   0  0  0  0  0  0
   -0.6946   31.7498    1.6400 C   0  0  0  0  0  0
    0.8419   31.9648    0.5104 Br  0  0  0  0  0  0
    0.2724   28.3701    0.3112 H   0  0  0  0  0  0
  1  2  1  0  0  0
  2  3  2  0  0  0
  3  4  1  0  0  0
  4  5  1  0  0  0
  5  6  2  0  0  0
  6  7  1  0  0  0
  7  8  2  0  0  0
  8  9  1  0  0  0
  2 10  1  0  0  0
 10 11  1  0  0  0
 11 12  2  0  0  0
 12 13  1  0  0  0
 12 14  1  0  0  0
 14 15  1  0  0  0
 15 16  1  0  0  0
  9  5  1  0  0  0
 15 10  2  0  0  0
  1 17  1  0  0  0
M  END
>  <CHROM.0>
-59.88758699,-179.78758311

>  <CHROM.1>
4.37135222,-157.32496227,177.75052137,154.45970051,-1.30007275,30.12554406
2.87072902,-1.35624834,0.67069764,-0.45696815

>  <Name>
81b8485a-b03e-413a-82d3-c68eac9f36f9

>  <RI>
2.20705e+07

>  <Rbt.Current_Directory>
/data/work/jku/5V6S/work/40/8dba899c20c42488f2b1a17844994e

>  <Rbt.Executable>
rbdock ($Id: //depot/dev/client3/rdock/2013.1/src/exe/rbdock.cxx#4 $)

>  <Rbt.Library>
libRbt.so (2013.1, Build901 2013/11/27)

>  <Rbt.Parameter_File>
/rDock_2013.1_src/data/scripts/dock.prm

>  <Rbt.Receptor>
docking.prm

>  <SCORE>
-14.9161

>  <SCORE.INTER>
-13.1438

>  <SCORE.INTER.CONST>
1

>  <SCORE.INTER.POLAR>
0

>  <SCORE.INTER.REPUL>
0.0561564

>  <SCORE.INTER.ROT>
3

>  <SCORE.INTER.VDW>
-21.8246

>  <SCORE.INTER.norm>
-0.821486

>  <SCORE.INTRA>
-1.50073

>  <SCORE.INTRA.DIHEDRAL>
-8.56897

>  <SCORE.INTRA.DIHEDRAL.0>
11.2649

>  <SCORE.INTRA.POLAR>
0

>  <SCORE.INTRA.POLAR.0>
0

>  <SCORE.INTRA.REPUL>
0

>  <SCORE.INTRA.REPUL.0>
0

>  <SCORE.INTRA.VDW>
2.78376

>  <SCORE.INTRA.VDW.0>
-1.60203

>  <SCORE.INTRA.norm>
-0.0937955

>  <SCORE.RESTR>
0

>  <SCORE.RESTR.CAVITY>
0

>  <SCORE.RESTR.norm>
0

>  <SCORE.SYSTEM>
-0.271623

>  <SCORE.SYSTEM.CONST>
0

>  <SCORE.SYSTEM.DIHEDRAL>
0.00785395

>  <SCORE.SYSTEM.VDW>
-0.27555

>  <SCORE.SYSTEM.norm>
-0.0169765

>  <SCORE.heavy>
16

>  <SCORE.norm>
-0.932258

>  <enum_code>
T

>  <enum_smi>
OC(=CSc1nncs1)c1cc(Br)sc1Br

>  <sha256>
4fbc411484235e629e48d8624ec40f34931f7851c15a0ea030d44a023231e732

>  <std_smi>
O=C(CSc1nncs1)c1cc(Br)sc1Br

>  <uuid>
81b8485a-b03e-413a-82d3-c68eac9f36f9

$$$$
81b8485a-b03e-413a-82d3-c68eac9f36f9
  rDOCK(R)          3D
libRbt.so/2013.1/901 2013/11/27
 17 18  0  0  0  0  0  0  0  0999 V2000
   -3.5535   30.4082    0.5027 O   0  0  0  0  0  0
   -2.4707   30.1030    1.3075 C   0  0  0  0  0  0
   -2.4169   28.9561    2.0095 C   0  0  0  0  0  0
   -1.1129   28.5306    3.0767 S   0  0  0  0  0  0
   -1.7097   27.0114    3.7153 C   0  0  0  0  0  0
   -2.9792   26.6586    3.7172 N   0  0  0  0  0  0
   -3.1802   25.4153    4.2848 N   0  0  0  0  0  0
   -2.0509   24.8824    4.6974 C   0  0  0  0  0  0
   -0.6616   25.8482    4.4255 S   0  0  0  0  0  0
   -1.4888   31.1439    1.2992 C   0  0  0  0  0  0
   -0.6703   31.4516    0.1636 C   0  0  0  0  0  0
    0.1840   32.4925    0.4313 C   0  0  0  0  0  0
    1.4210   33.1962   -0.8445 Br  0  0  0  0  0  0
    0.0362   33.0939    2.0086 S   0  0  0  0  0  0
   -1.1815   31.9592    2.3690 C   0  0  0  0  0  0
   -1.9913   31.8801    4.1070 Br  0  0  0  0  0  0
   -4.2035   29.6875    0.5555 H   0  0  0  0  0  0
  1  2  1  0  0  0
  2  3  2  0  0  0
  3  4  1  0  0  0
  4  5  1  0  0  0
  5  6  2  0  0  0
  6  7  1  0  0  0
  7  8  2  0  0  0
  8  9  1  0  0  0
  2 10  1  0  0  0
 10 11  1  0  0  0
 11 12  2  0  0  0
 12 13  1  0  0  0
 12 14  1  0  0  0
 14 15  1  0  0  0
 15 16  1  0  0  0
  9  5  1  0  0  0
 15 10  2  0  0  0
  1 17  1  0  0  0
M  END
>  <CHROM.0>
-59.88758699,68.69931522

>  <CHROM.1>
0.34451618,176.75666490,-21.51544409,-69.75382442,-0.98880115,30.47740419
2.21258018,2.18135822,-0.95005683,3.08992296

>  <Name>
81b8485a-b03e-413a-82d3-c68eac9f36f9

>  <RI>
2.20705e+07

>  <Rbt.Current_Directory>
/data/work/jku/5V6S/work/40/8dba899c20c42488f2b1a17844994e

>  <Rbt.Executable>
rbdock ($Id: //depot/dev/client3/rdock/2013.1/src/exe/rbdock.cxx#4 $)

>  <Rbt.Library>
libRbt.so (2013.1, Build901 2013/11/27)

>  <Rbt.Parameter_File>
/rDock_2013.1_src/data/scripts/dock.prm

>  <Rbt.Receptor>
docking.prm

>  <SCORE>
-16.5005

>  <SCORE.INTER>
-14.4666

>  <SCORE.INTER.CONST>
1

>  <SCORE.INTER.POLAR>
0

>  <SCORE.INTER.REPUL>
0

>  <SCORE.INTER.ROT>
3

>  <SCORE.INTER.VDW>
-22.8666

>  <SCORE.INTER.norm>
-0.904163

>  <SCORE.INTRA>
-0.520409

>  <SCORE.INTRA.DIHEDRAL>
-0.872329

>  <SCORE.INTRA.DIHEDRAL.0>
11.2649

>  <SCORE.INTRA.POLAR>
0

>  <SCORE.INTRA.POLAR.0>
0

>  <SCORE.INTRA.REPUL>
0

>  <SCORE.INTRA.REPUL.0>
0

>  <SCORE.INTRA.VDW>
-0.084244

>  <SCORE.INTRA.VDW.0>
-1.60203

>  <SCORE.INTRA.norm>
-0.0325255

>  <SCORE.RESTR>
0

>  <SCORE.RESTR.CAVITY>
0

>  <SCORE.RESTR.norm>
0

>  <SCORE.SYSTEM>
-1.51346

>  <SCORE.SYSTEM.CONST>
0

>  <SCORE.SYSTEM.DIHEDRAL>
0.374675

>  <SCORE.SYSTEM.POLAR>
-0.502765

>  <SCORE.SYSTEM.VDW>
0.00860604

>  <SCORE.SYSTEM.norm>
-0.0945912

>  <SCORE.heavy>
16

>  <SCORE.norm>
-1.03128

>  <enum_code>
T

>  <enum_smi>
OC(=CSc1nncs1)c1cc(Br)sc1Br

>  <sha256>
4fbc411484235e629e48d8624ec40f34931f7851c15a0ea030d44a023231e732

>  <std_smi>
O=C(CSc1nncs1)c1cc(Br)sc1Br

>  <uuid>
81b8485a-b03e-413a-82d3-c68eac9f36f9

$$$$
81b8485a-b03e-413a-82d3-c68eac9f36f9
  rDOCK(R)          3D
libRbt.so/2013.1/901 2013/11/27
 17 18  0  0  0  0  0  0  0  0999 V2000
   -0.4952   26.3286    3.5233 O   0  0  0  0  0  0
   -1.3178   27.4363    3.4258 C   0  0  0  0  0  0
   -0.9777   28.5016    2.6771 C   0  0  0  0  0  0
   -1.9376   29.9446    2.5481 S   0  0  0  0  0  0
   -0.8621   30.9566    1.6040 C   0  0  0  0  0  0
    0.0784   30.4925    0.8064 N   0  0  0  0  0  0
    0.7884   31.5016    0.1851 N   0  0  0  0  0  0
    0.3586   32.6906    0.5473 C   0  0  0  0  0  0
   -0.9395   32.6730    1.6658 S   0  0  0  0  0  0
   -2.5015   27.2939    4.2170 C   0  0  0  0  0  0
   -3.3193   28.3981    4.6248 C   0  0  0  0  0  0
   -4.3893   27.9768    5.3747 C   0  0  0  0  0  0
   -5.7098   29.1611    6.0865 Br  0  0  0  0  0  0
   -4.4251   26.2991    5.6106 S   0  0  0  0  0  0
   -2.9932   26.1026    4.7097 C   0  0  0  0  0  0
   -2.2027   24.3727    4.4539 Br  0  0  0  0  0  0
    0.2909   26.4650    2.9681 H   0  0  0  0  0  0
  1  2  1  0  0  0
  2  3  2  0  0  0
  3  4  1  0  0  0
  4  5  1  0  0  0
  5  6  2  0  0  0
  6  7  1  0  0  0
  7  8  2  0  0  0
  8  9  1  0  0  0
  2 10  1  0  0  0
 10 11  1  0  0  0
 11 12  2  0  0  0
 12 13  1  0  0  0
 12 14  1  0  0  0
 14 15  1  0  0  0
 15 16  1  0  0  0
  9  5  1  0  0  0
 15 10  2  0  0  0
  1 17  1  0  0  0
M  END
>  <CHROM.0>
-59.88758699,-179.79468159

>  <CHROM.1>
-1.44461215,173.86932458,24.18067644,160.75224049,-2.64422375,28.21548094
3.91086086,-2.16691084,0.64524400,-0.25150185

>  <Name>
81b8485a-b03e-413a-82d3-c68eac9f36f9

>  <RI>
2.20705e+07

>  <Rbt.Current_Directory>
/data/work/jku/5V6S/work/40/8dba899c20c42488f2b1a17844994e

>  <Rbt.Executable>
rbdock ($Id: //depot/dev/client3/rdock/2013.1/src/exe/rbdock.cxx#4 $)

>  <Rbt.Library>
libRbt.so (2013.1, Build901 2013/11/27)

>  <Rbt.Parameter_File>
/rDock_2013.1_src/data/scripts/dock.prm

>  <Rbt.Receptor>
docking.prm

>  <SCORE>
-15.8566

>  <SCORE.INTER>
-13.8274

>  <SCORE.INTER.CONST>
1

>  <SCORE.INTER.POLAR>
0

>  <SCORE.INTER.REPUL>
0

>  <SCORE.INTER.ROT>
3

>  <SCORE.INTER.VDW>
-22.2274

>  <SCORE.INTER.norm>
-0.864214

>  <SCORE.INTRA>
-1.75754

>  <SCORE.INTRA.DIHEDRAL>
-9.42968

>  <SCORE.INTRA.DIHEDRAL.0>
11.2649

>  <SCORE.INTRA.POLAR>
0

>  <SCORE.INTRA.POLAR.0>
0

>  <SCORE.INTRA.REPUL>
0

>  <SCORE.INTRA.REPUL.0>
0

>  <SCORE.INTRA.VDW>
2.95731

>  <SCORE.INTRA.VDW.0>
-1.60203

>  <SCORE.INTRA.norm>
-0.109846

>  <SCORE.RESTR>
0

>  <SCORE.RESTR.CAVITY>
0

>  <SCORE.RESTR.norm>
0

>  <SCORE.SYSTEM>
-0.271632

>  <SCORE.SYSTEM.CONST>
0

>  <SCORE.SYSTEM.DIHEDRAL>
0.00783932

>  <SCORE.SYSTEM.VDW>
-0.275552

>  <SCORE.SYSTEM.norm>
-0.016977

>  <SCORE.heavy>
16

>  <SCORE.norm>
-0.991037

>  <enum_code>
T

>  <enum_smi>
OC(=CSc1nncs1)c1cc(Br)sc1Br

>  <sha256>
4fbc411484235e629e48d8624ec40f34931f7851c15a0ea030d44a023231e732

>  <std_smi>
O=C(CSc1nncs1)c1cc(Br)sc1Br

>  <uuid>
81b8485a-b03e-413a-82d3-c68eac9f36f9

$$$$
b29dca71-f80d-4125-9cad-78e8f5efe4ff
  rDOCK(R)          3D
libRbt.so/2013.1/901 2013/11/27
 18 19  0  0  0  0  0  0  0  0999 V2000
   -5.5319   27.9745    3.9724 O   0  0  0  0  0  0
   -4.3247   28.2366    3.9760 C   0  0  0  0  0  0
   -3.8527   29.4777    3.2495 C   0  0  0  0  0  0
   -4.1480   30.9614    4.2517 S   0  0  0  0  0  0
   -3.4232   32.1255    3.1943 C   0  0  0  0  0  0
   -2.8748   33.2262    3.6270 N   0  3  0  0  0  0
   -2.3538   33.9974    2.6598 N   0  3  0  0  0  0
   -2.4931   33.4952    1.4606 C   0  0  0  0  0  0
   -3.3072   31.9641    1.4819 S   0  0  0  0  0  0
   -3.4025   27.3133    4.6587 C   0  0  0  0  0  0
   -3.4645   25.8835    4.4276 C   0  0  0  0  0  0
   -2.5145   25.1937    5.1324 C   0  0  0  0  0  0
   -2.2984   23.2988    5.0426 Br  0  0  0  0  0  0
   -1.5548   26.1942    6.0926 S   0  0  0  0  0  0
   -2.4129   27.5831    5.5874 C   0  0  0  0  0  0
   -1.9668   29.2715    6.3826 Br  0  0  0  0  0  0
   -2.9388   33.4656    4.6167 H   0  0  0  0  0  0
   -1.9251   34.9162    2.7957 H   0  0  0  0  0  0
  1  2  2  0  0  0
  2  3  1  0  0  0
  3  4  1  0  0  0
  4  5  1  0  0  0
  5  6  2  0  0  0
  6  7  1  0  0  0
  7  8  2  0  0  0
  8  9  1  0  0  0
  2 10  1  0  0  0
 10 11  1  0  0  0
 11 12  2  0  0  0
 12 13  1  0  0  0
 12 14  1  0  0  0
 14 15  1  0  0  0
 15 16  1  0  0  0
  9  5  1  0  0  0
 15 10  2  0  0  0
  6 17  1  0  0  0
  7 18  1  0  0  0
M  END
>  <CHROM.0>
-59.88758699,179.23654821

>  <CHROM.1>
79.24857094,176.69800262,-150.89025859,48.21307774,-2.78767872,28.32209803
4.58606270,1.77554700,-1.08333327,-0.09711632

>  <Name>
b29dca71-f80d-4125-9cad-78e8f5efe4ff

>  <RI>
3.34042e+07

>  <Rbt.Current_Directory>
/data/work/jku/5V6S/work/40/8dba899c20c42488f2b1a17844994e

>  <Rbt.Executable>
rbdock ($Id: //depot/dev/client3/rdock/2013.1/src/exe/rbdock.cxx#4 $)

>  <Rbt.Library>
libRbt.so (2013.1, Build901 2013/11/27)

>  <Rbt.Parameter_File>
/rDock_2013.1_src/data/scripts/dock.prm

>  <Rbt.Receptor>
docking.prm

>  <SCORE>
-17.3836

>  <SCORE.INTER>
-17.5119

>  <SCORE.INTER.CONST>
1

>  <SCORE.INTER.POLAR>
-3.64192

>  <SCORE.INTER.REPUL>
0

>  <SCORE.INTER.ROT>
4

>  <SCORE.INTER.VDW>
-14.5294

>  <SCORE.INTER.norm>
-1.0945

>  <SCORE.INTRA>
0.398925

>  <SCORE.INTRA.DIHEDRAL>
-0.603431

>  <SCORE.INTRA.DIHEDRAL.0>
8.87355

>  <SCORE.INTRA.POLAR>
0

>  <SCORE.INTRA.POLAR.0>
0

>  <SCORE.INTRA.REPUL>
0

>  <SCORE.INTRA.REPUL.0>
0

>  <SCORE.INTRA.VDW>
0.70064

>  <SCORE.INTRA.VDW.0>
-2.27302

>  <SCORE.INTRA.norm>
0.0249328

>  <SCORE.RESTR>
0

>  <SCORE.RESTR.CAVITY>
0

>  <SCORE.RESTR.norm>
0

>  <SCORE.SYSTEM>
-0.270566

>  <SCORE.SYSTEM.CONST>
0

>  <SCORE.SYSTEM.DIHEDRAL>
0.0105072

>  <SCORE.SYSTEM.VDW>
-0.275819

>  <SCORE.SYSTEM.norm>
-0.0169104

>  <SCORE.heavy>
16

>  <SCORE.norm>
-1.08647

>  <enum_code>
M

>  <enum_smi>
O=C(CSc1[nH+][nH+]cs1)c1cc(Br)sc1Br

>  <sha256>
4fbc411484235e629e48d8624ec40f34931f7851c15a0ea030d44a023231e732

>  <std_smi>
O=C(CSc1nncs1)c1cc(Br)sc1Br

>  <uuid>
b29dca71-f80d-4125-9cad-78e8f5efe4ff

$$$$
b29dca71-f80d-4125-9cad-78e8f5efe4ff
  rDOCK(R)          3D
libRbt.so/2013.1/901 2013/11/27
 18 19  0  0  0  0  0  0  0  0999 V2000
   -1.1777   27.8619    6.3634 O   0  0  0  0  0  0
   -1.8522   27.7541    5.3340 C   0  0  0  0  0  0
   -1.8659   28.9082    4.3549 C   0  0  0  0  0  0
   -2.2240   30.4702    5.2063 S   0  0  0  0  0  0
   -1.8120   31.5554    3.9212 C   0  0  0  0  0  0
   -1.7493   32.8475    4.0822 N   0  3  0  0  0  0
   -1.4013   33.5226    2.9755 N   0  3  0  0  0  0
   -1.1872   32.7526    1.9406 C   0  0  0  0  0  0
   -1.4090   31.0741    2.3158 S   0  0  0  0  0  0
   -2.6332   26.5229    5.1260 C   0  0  0  0  0  0
   -3.8567   26.5327    4.3484 C   0  0  0  0  0  0
   -4.4274   25.2921    4.2476 C   0  0  0  0  0  0
   -6.0323   24.9415    3.2746 Br  0  0  0  0  0  0
   -3.5648   24.1037    5.0768 S   0  0  0  0  0  0
   -2.4062   25.2442    5.6037 C   0  0  0  0  0  0
   -1.0241   24.6567    6.7980 Br  0  0  0  0  0  0
   -2.0305   33.2584    4.9727 H   0  0  0  0  0  0
   -1.3445   34.5404    2.8910 H   0  0  0  0  0  0
  1  2  2  0  0  0
  2  3  1  0  0  0
  3  4  1  0  0  0
  4  5  1  0  0  0
  5  6  2  0  0  0
  6  7  1  0  0  0
  7  8  2  0  0  0
  8  9  1  0  0  0
  2 10  1  0  0  0
 10 11  1  0  0  0
 11 12  2  0  0  0
 12 13  1  0  0  0
 12 14  1  0  0  0
 14 15  1  0  0  0
 15 16  1  0  0  0
  9  5  1  0  0  0
 15 10  2  0  0  0
  6 17  1  0  0  0
  7 18  1  0  0  0
M  END
>  <CHROM.0>
-59.88758699,69.18002146

>  <CHROM.1>
-50.03773496,167.87092847,-171.71738255,151.33881079,-2.76155766,27.27422144
4.60385442,-1.22633078,0.61273246,2.72732804

>  <Name>
b29dca71-f80d-4125-9cad-78e8f5efe4ff

>  <RI>
3.34042e+07

>  <Rbt.Current_Directory>
/data/work/jku/5V6S/work/40/8dba899c20c42488f2b1a17844994e

>  <Rbt.Executable>
rbdock ($Id: //depot/dev/client3/rdock/2013.1/src/exe/rbdock.cxx#4 $)

>  <Rbt.Library>
libRbt.so (2013.1, Build901 2013/11/27)

>  <Rbt.Parameter_File>
/rDock_2013.1_src/data/scripts/dock.prm

>  <Rbt.Receptor>
docking.prm

>  <SCORE>
-21.3121

>  <SCORE.INTER>
-18.9561

>  <SCORE.INTER.CONST>
1

>  <SCORE.INTER.POLAR>
-2.04358

>  <SCORE.INTER.REPUL>
0

>  <SCORE.INTER.ROT>
4

>  <SCORE.INTER.VDW>
-21.4079

>  <SCORE.INTER.norm>
-1.18475

>  <SCORE.INTRA>
-0.842702

>  <SCORE.INTRA.DIHEDRAL>
-5.83696

>  <SCORE.INTRA.DIHEDRAL.0>
8.87355

>  <SCORE.INTRA.POLAR>
0

>  <SCORE.INTRA.POLAR.0>
0

>  <SCORE.INTRA.REPUL>
0

>  <SCORE.INTRA.REPUL.0>
0

>  <SCORE.INTRA.VDW>
2.07578

>  <SCORE.INTRA.VDW.0>
-2.27302

>  <SCORE.INTRA.norm>
-0.0526689

>  <SCORE.RESTR>
0

>  <SCORE.RESTR.CAVITY>
0

>  <SCORE.RESTR.norm>
0

>  <SCORE.SYSTEM>
-1.51332

>  <SCORE.SYSTEM.CONST>
0

>  <SCORE.SYSTEM.DIHEDRAL>
0.415555

>  <SCORE.SYSTEM.POLAR>
-0.503083

>  <SCORE.SYSTEM.VDW>
-0.0106203

>  <SCORE.SYSTEM.norm>
-0.0945828

>  <SCORE.heavy>
16

>  <SCORE.norm>
-1.33201

>  <enum_code>
M

>  <enum_smi>
O=C(CSc1[nH+][nH+]cs1)c1cc(Br)sc1Br

>  <sha256>
4fbc411484235e629e48d8624ec40f34931f7851c15a0ea030d44a023231e732

>  <std_smi>
O=C(CSc1nncs1)c1cc(Br)sc1Br

>  <uuid>
b29dca71-f80d-4125-9cad-78e8f5efe4ff

$$$$
b29dca71-f80d-4125-9cad-78e8f5efe4ff
  rDOCK(R)          3D
libRbt.so/2013.1/901 2013/11/27
 18 19  0  0  0  0  0  0  0  0999 V2000
   -2.8335   29.1602    1.2726 O   0  0  0  0  0  0
   -1.6816   29.3109    1.6926 C   0  0  0  0  0  0
   -0.9758   28.1221    2.3088 C   0  0  0  0  0  0
   -1.6122   27.7886    3.9751 S   0  0  0  0  0  0
   -0.9939   26.1819    4.1617 C   0  0  0  0  0  0
    0.1325   25.7939    3.6325 N   0  3  0  0  0  0
    0.4529   24.5176    3.8974 N   0  3  0  0  0  0
   -0.4283   23.9024    4.6422 C   0  0  0  0  0  0
   -1.7532   24.9336    5.0766 S   0  0  0  0  0  0
   -1.0647   30.6452    1.6021 C   0  0  0  0  0  0
   -0.2579   31.0229    0.4584 C   0  0  0  0  0  0
    0.2096   32.3071    0.5438 C   0  0  0  0  0  0
    1.2827   33.1343   -0.8013 Br  0  0  0  0  0  0
   -0.2597   33.0829    1.9658 S   0  0  0  0  0  0
   -1.0948   31.6929    2.5054 C   0  0  0  0  0  0
   -1.8856   31.7240    4.2535 Br  0  0  0  0  0  0
    0.6419   26.4248    3.0133 H   0  0  0  0  0  0
    1.2695   24.0200    3.5340 H   0  0  0  0  0  0
  1  2  2  0  0  0
  2  3  1  0  0  0
  3  4  1  0  0  0
  4  5  1  0  0  0
  5  6  2  0  0  0
  6  7  1  0  0  0
  7  8  2  0  0  0
  8  9  1  0  0  0
  2 10  1  0  0  0
 10 11  1  0  0  0
 11 12  2  0  0  0
 12 13  1  0  0  0
 12 14  1  0  0  0
 14 15  1  0  0  0
 15 16  1  0  0  0
  9  5  1  0  0  0
 15 10  2  0  0  0
  6 17  1  0  0  0
  7 18  1  0  0  0
M  END
>  <CHROM.0>
-59.88758699,71.03891370

>  <CHROM.1>
-75.44194222,163.67778488,32.85220801,-92.58763136,-0.69076183,30.01040863
2.45304880,-1.89987520,0.94648457,-0.24340756

>  <Name>
b29dca71-f80d-4125-9cad-78e8f5efe4ff

>  <RI>
3.34042e+07

>  <Rbt.Current_Directory>
/data/work/jku/5V6S/work/40/8dba899c20c42488f2b1a17844994e

>  <Rbt.Executable>
rbdock ($Id: //depot/dev/client3/rdock/2013.1/src/exe/rbdock.cxx#4 $)

>  <Rbt.Library>
libRbt.so (2013.1, Build901 2013/11/27)

>  <Rbt.Parameter_File>
/rDock_2013.1_src/data/scripts/dock.prm

>  <Rbt.Receptor>
docking.prm

>  <SCORE>
-15.1589

>  <SCORE.INTER>
-17.0732

>  <SCORE.INTER.CONST>
1

>  <SCORE.INTER.POLAR>
0

>  <SCORE.INTER.REPUL>
0

>  <SCORE.INTER.ROT>
4

>  <SCORE.INTER.VDW>
-26.4732

>  <SCORE.INTER.norm>
-1.06707

>  <SCORE.INTRA>
3.39846

>  <SCORE.INTRA.DIHEDRAL>
4.67572

>  <SCORE.INTRA.DIHEDRAL.0>
8.87355

>  <SCORE.INTRA.POLAR>
0

>  <SCORE.INTRA.POLAR.0>
0

>  <SCORE.INTRA.REPUL>
0

>  <SCORE.INTRA.REPUL.0>
0

>  <SCORE.INTRA.VDW>
1.0606

>  <SCORE.INTRA.VDW.0>
-2.27302

>  <SCORE.INTRA.norm>
0.212404

>  <SCORE.RESTR>
0

>  <SCORE.RESTR.CAVITY>
0

>  <SCORE.RESTR.norm>
0

>  <SCORE.SYSTEM>
-1.48421

>  <SCORE.SYSTEM.CONST>
0

>  <SCORE.SYSTEM.DIHEDRAL>
0.592418

>  <SCORE.SYSTEM.POLAR>
-0.500085

>  <SCORE.SYSTEM.VDW>
-0.0801261

>  <SCORE.SYSTEM.norm>
-0.0927629

>  <SCORE.heavy>
16

>  <SCORE.norm>
-0.947431

>  <enum_code>
M

>  <enum_smi>
O=C(CSc1[nH+][nH+]cs1)c1cc(Br)sc1Br

>  <sha256>
4fbc411484235e629e48d8624ec40f34931f7851c15a0ea030d44a023231e732

>  <std_smi>
O=C(CSc1nncs1)c1cc(Br)sc1Br

>  <uuid>
b29dca71-f80d-4125-9cad-78e8f5efe4ff

$$$$
b29dca71-f80d-4125-9cad-78e8f5efe4ff
  rDOCK(R)          3D
libRbt.so/2013.1/901 2013/11/27
 18 19  0  0  0  0  0  0  0  0999 V2000
   -1.0498   27.6244    4.8109 O   0  0  0  0  0  0
   -2.1288   27.7997    4.2356 C   0  0  0  0  0  0
   -2.3753   29.1269    3.5508 C   0  0  0  0  0  0
   -2.1447   30.5026    4.7115 S   0  0  0  0  0  0
   -1.9516   31.7762    3.5542 C   0  0  0  0  0  0
   -1.9755   33.0375    3.8832 N   0  3  0  0  0  0
   -1.7955   33.8774    2.8518 N   0  3  0  0  0  0
   -1.6267   33.2689    1.7068 C   0  0  0  0  0  0
   -1.6760   31.5430    1.8687 S   0  0  0  0  0  0
   -3.1327   26.7227    4.2715 C   0  0  0  0  0  0
   -4.4712   26.9268    3.7534 C   0  0  0  0  0  0
   -5.2518   25.8062    3.8530 C   0  0  0  0  0  0
   -7.0593   25.7180    3.2443 Br  0  0  0  0  0  0
   -4.4495   24.5097    4.5738 S   0  0  0  0  0  0
   -3.0311   25.4402    4.7809 C   0  0  0  0  0  0
   -1.5509   24.6531    5.7145 Br  0  0  0  0  0  0
   -2.1969   33.3036    4.8428 H   0  0  0  0  0  0
   -1.8281   34.8986    2.9017 H   0  0  0  0  0  0
  1  2  2  0  0  0
  2  3  1  0  0  0
  3  4  1  0  0  0
  4  5  1  0  0  0
  5  6  2  0  0  0
  6  7  1  0  0  0
  7  8  2  0  0  0
  8  9  1  0  0  0
  2 10  1  0  0  0
 10 11  1  0  0  0
 11 12  2  0  0  0
 12 13  1  0  0  0
 12 14  1  0  0  0
 14 15  1  0  0  0
 15 16  1  0  0  0
  9  5  1  0  0  0
 15 10  2  0  0  0
  6 17  1  0  0  0
  7 18  1  0  0  0
M  END
>  <CHROM.0>
-59.88758699,68.97141487

>  <CHROM.1>
-55.05735874,161.60021684,168.12362044,172.64793827,-3.29646543,27.58290594
4.03348969,-1.17753938,0.36803316,2.80142632

>  <Name>
b29dca71-f80d-4125-9cad-78e8f5efe4ff

>  <RI>
3.34042e+07

>  <Rbt.Current_Directory>
/data/work/jku/5V6S/work/40/8dba899c20c42488f2b1a17844994e

>  <Rbt.Executable>
rbdock ($Id: //depot/dev/client3/rdock/2013.1/src/exe/rbdock.cxx#4 $)

>  <Rbt.Library>
libRbt.so (2013.1, Build901 2013/11/27)

>  <Rbt.Parameter_File>
/rDock_2013.1_src/data/scripts/dock.prm

>  <Rbt.Receptor>
docking.prm

>  <SCORE>
-23.7821

>  <SCORE.INTER>
-20.4881

>  <SCORE.INTER.CONST>
1

>  <SCORE.INTER.POLAR>
-3.31787

>  <SCORE.INTER.REPUL>
0

>  <SCORE.INTER.ROT>
4

>  <SCORE.INTER.VDW>
-18.6073

>  <SCORE.INTER.norm>
-1.2805

>  <SCORE.INTRA>
-1.78038

>  <SCORE.INTRA.DIHEDRAL>
-7.78234

>  <SCORE.INTRA.DIHEDRAL.0>
8.87355

>  <SCORE.INTRA.POLAR>
0

>  <SCORE.INTRA.POLAR.0>
0

>  <SCORE.INTRA.REPUL>
0

>  <SCORE.INTRA.REPUL.0>
0

>  <SCORE.INTRA.VDW>
2.11079

>  <SCORE.INTRA.VDW.0>
-2.27302

>  <SCORE.INTRA.norm>
-0.111274

>  <SCORE.RESTR>
0

>  <SCORE.RESTR.CAVITY>
0

>  <SCORE.RESTR.norm>
0

>  <SCORE.SYSTEM>
-1.51365

>  <SCORE.SYSTEM.CONST>
0

>  <SCORE.SYSTEM.DIHEDRAL>
0.397565

>  <SCORE.SYSTEM.POLAR>
-0.502968

>  <SCORE.SYSTEM.VDW>
-0.00234177

>  <SCORE.SYSTEM.norm>
-0.0946032

>  <SCORE.heavy>
16

>  <SCORE.norm>
-1.48638

>  <enum_code>
M

>  <enum_smi>
O=C(CSc1[nH+][nH+]cs1)c1cc(Br)sc1Br

>  <sha256>
4fbc411484235e629e48d8624ec40f34931f7851c15a0ea030d44a023231e732

>  <std_smi>
O=C(CSc1nncs1)c1cc(Br)sc1Br

>  <uuid>
b29dca71-f80d-4125-9cad-78e8f5efe4ff

$$$$
b29dca71-f80d-4125-9cad-78e8f5efe4ff
  rDOCK(R)          3D
libRbt.so/2013.1/901 2013/11/27
 18 19  0  0  0  0  0  0  0  0999 V2000
   -1.0327   27.0360    3.6606 O   0  0  0  0  0  0
   -1.7086   28.0248    3.3578 C   0  0  0  0  0  0
   -1.1649   28.9806    2.3177 C   0  0  0  0  0  0
   -2.1139   30.5273    2.3065 S   0  0  0  0  0  0
   -0.9803   31.5098    1.4414 C   0  0  0  0  0  0
   -0.4982   31.1721    0.2782 N   0  3  0  0  0  0
    0.3566   32.0665   -0.2425 N   0  3  0  0  0  0
    0.5431   33.1138    0.5179 C   0  0  0  0  0  0
   -0.3873   33.0364    1.9793 S   0  0  0  0  0  0
   -2.9929   28.2411    4.0453 C   0  0  0  0  0  0
   -4.1574   27.4371    3.7305 C   0  0  0  0  0  0
   -5.2486   27.7700    4.4878 C   0  0  0  0  0  0
   -6.9398   26.8948    4.3493 Br  0  0  0  0  0  0
   -4.9433   29.0388    5.5560 S   0  0  0  0  0  0
   -3.3306   29.1763    5.0076 C   0  0  0  0  0  0
   -2.2442   30.5925    5.7120 Br  0  0  0  0  0  0
   -0.7243   30.2582   -0.1148 H   0  0  0  0  0  0
    0.8713   31.9586   -1.1199 H   0  0  0  0  0  0
  1  2  2  0  0  0
  2  3  1  0  0  0
  3  4  1  0  0  0
  4  5  1  0  0  0
  5  6  2  0  0  0
  6  7  1  0  0  0
  7  8  2  0  0  0
  8  9  1  0  0  0
  2 10  1  0  0  0
 10 11  1  0  0  0
 11 12  2  0  0  0
 12 13  1  0  0  0
 12 14  1  0  0  0
 14 15  1  0  0  0
 15 16  1  0  0  0
  9  5  1  0  0  0
 15 10  2  0  0  0
  6 17  1  0  0  0
  7 18  1  0  0  0
M  END
>  <CHROM.0>
-59.88758699,69.70566225

>  <CHROM.1>
-166.99538049,163.16072495,54.21263698,-74.55648011,-3.04757893,29.53329777
3.69373080,0.23522128,-0.73525570,-1.81835957

>  <Name>
b29dca71-f80d-4125-9cad-78e8f5efe4ff

>  <RI>
3.34042e+07

>  <Rbt.Current_Directory>
/data/work/jku/5V6S/work/40/8dba899c20c42488f2b1a17844994e

>  <Rbt.Executable>
rbdock ($Id: //depot/dev/client3/rdock/2013.1/src/exe/rbdock.cxx#4 $)

>  <Rbt.Library>
libRbt.so (2013.1, Build901 2013/11/27)

>  <Rbt.Parameter_File>
/rDock_2013.1_src/data/scripts/dock.prm

>  <Rbt.Receptor>
docking.prm

>  <SCORE>
-19.4821

>  <SCORE.INTER>
-20.6626

>  <SCORE.INTER.CONST>
1

>  <SCORE.INTER.POLAR>
-2.37196

>  <SCORE.INTER.REPUL>
0

>  <SCORE.INTER.ROT>
4

>  <SCORE.INTER.VDW>
-21.9979

>  <SCORE.INTER.norm>
-1.29141

>  <SCORE.INTRA>
2.69116

>  <SCORE.INTRA.DIHEDRAL>
5.02041

>  <SCORE.INTRA.DIHEDRAL.0>
8.87355

>  <SCORE.INTRA.POLAR>
0

>  <SCORE.INTRA.POLAR.0>
0

>  <SCORE.INTRA.REPUL>
0

>  <SCORE.INTRA.REPUL.0>
0

>  <SCORE.INTRA.VDW>
0.180955

>  <SCORE.INTRA.VDW.0>
-2.27302

>  <SCORE.INTRA.norm>
0.168198

>  <SCORE.RESTR>
0

>  <SCORE.RESTR.CAVITY>
0

>  <SCORE.RESTR.norm>
0

>  <SCORE.SYSTEM>
-1.5107

>  <SCORE.SYSTEM.CONST>
0

>  <SCORE.SYSTEM.DIHEDRAL>
0.46257

>  <SCORE.SYSTEM.POLAR>
-0.503217

>  <SCORE.SYSTEM.VDW>
-0.0310445

>  <SCORE.SYSTEM.norm>
-0.0944186

>  <SCORE.heavy>
16

>  <SCORE.norm>
-1.21763

>  <enum_code>
M

>  <enum_smi>
O=C(CSc1[nH+][nH+]cs1)c1cc(Br)sc1Br

>  <sha256>
4fbc411484235e629e48d8624ec40f34931f7851c15a0ea030d44a023231e732

>  <std_smi>
O=C(CSc1nncs1)c1cc(Br)sc1Br

>  <uuid>
b29dca71-f80d-4125-9cad-78e8f5efe4ff

$$$$
f9b192de-3b35-419f-8a85-804bb50bdb65
  rDOCK(R)          3D
libRbt.so/2013.1/901 2013/11/27
 17 18  0  0  0  0  0  0  0  0999 V2000
   -0.5047   28.2991    1.7270 O   0  0  0  0  0  0
   -1.2221   29.2867    1.5142 C   0  0  0  0  0  0
   -2.7354   29.1167    1.5845 C   0  0  0  0  0  0
   -3.2187   27.9282    2.8847 S   0  0  0  0  0  0
   -3.0492   28.8316    4.3608 C   0  0  0  0  0  0
   -1.9176   29.2859    4.8644 N   0  3  0  0  0  0
   -1.9561   29.9420    6.0831 N   0  0  0  0  0  0
   -3.2020   29.9498    6.5082 C   0  0  0  0  0  0
   -4.3268   29.1858    5.4470 S   0  0  0  0  0  0
   -0.6691   30.6244    1.2713 C   0  0  0  0  0  0
    0.3062   30.9551    0.2563 C   0  0  0  0  0  0
    0.6275   32.2897    0.2566 C   0  0  0  0  0  0
    1.8778   33.0720   -0.9565 Br  0  0  0  0  0  0
   -0.1965   33.1698    1.4363 S   0  0  0  0  0  0
   -1.0048   31.7705    1.9743 C   0  0  0  0  0  0
   -2.2236   31.8887    3.4557 Br  0  0  0  0  0  0
   -1.0774   29.1384    4.2862 H   0  0  0  0  0  0
  1  2  2  0  0  0
  2  3  1  0  0  0
  3  4  1  0  0  0
  4  5  1  0  0  0
  5  6  2  0  0  0
  6  7  1  0  0  0
  7  8  2  0  0  0
  8  9  1  0  0  0
  2 10  1  0  0  0
 10 11  1  0  0  0
 11 12  2  0  0  0
 12 13  1  0  0  0
 12 14  1  0  0  0
 14 15  1  0  0  0
 15 16  1  0  0  0
  9  5  1  0  0  0
 15 10  2  0  0  0
  6 17  1  0  0  0
M  END
>  <CHROM.0>
-59.88758699,179.66455313

>  <CHROM.1>
35.66578160,76.93196297,-65.95557696,54.62829874,-1.19463817,30.99626178
2.29619409,-3.01697001,0.92823940,0.44222737

>  <Name>
f9b192de-3b35-419f-8a85-804bb50bdb65

>  <RI>
3.72176e+07

>  <Rbt.Current_Directory>
/data/work/jku/5V6S/work/40/8dba899c20c42488f2b1a17844994e

>  <Rbt.Executable>
rbdock ($Id: //depot/dev/client3/rdock/2013.1/src/exe/rbdock.cxx#4 $)

>  <Rbt.Library>
libRbt.so (2013.1, Build901 2013/11/27)

>  <Rbt.Parameter_File>
/rDock_2013.1_src/data/scripts/dock.prm

>  <Rbt.Receptor>
docking.prm

>  <SCORE>
-9.54556

>  <SCORE.INTER>
-12.4647

>  <SCORE.INTER.CONST>
1

>  <SCORE.INTER.POLAR>
0

>  <SCORE.INTER.REPUL>
0

>  <SCORE.INTER.ROT>
4

>  <SCORE.INTER.VDW>
-21.8647

>  <SCORE.INTER.norm>
-0.779043

>  <SCORE.INTRA>
3.17712

>  <SCORE.INTRA.DIHEDRAL>
6.18899

>  <SCORE.INTRA.DIHEDRAL.0>
5.59332

>  <SCORE.INTRA.POLAR>
0.821241

>  <SCORE.INTRA.POLAR.0>
-0.821241

>  <SCORE.INTRA.REPUL>
0

>  <SCORE.INTRA.REPUL.0>
0

>  <SCORE.INTRA.VDW>
-2.70959

>  <SCORE.INTRA.VDW.0>
-0.424019

>  <SCORE.INTRA.norm>
0.19857

>  <SCORE.RESTR>
0.0135994

>  <SCORE.RESTR.CAVITY>
0.0135994

>  <SCORE.RESTR.norm>
0.000849965

>  <SCORE.SYSTEM>
-0.271599

>  <SCORE.SYSTEM.CONST>
0

>  <SCORE.SYSTEM.DIHEDRAL>
0.00818656

>  <SCORE.SYSTEM.VDW>
-0.275692

>  <SCORE.SYSTEM.norm>
-0.0169749

>  <SCORE.heavy>
16

>  <SCORE.norm>
-0.596598

>  <enum_code>
M

>  <enum_smi>
O=C(CSc1[nH+]ncs1)c1cc(Br)sc1Br

>  <sha256>
4fbc411484235e629e48d8624ec40f34931f7851c15a0ea030d44a023231e732

>  <std_smi>
O=C(CSc1nncs1)c1cc(Br)sc1Br

>  <uuid>
f9b192de-3b35-419f-8a85-804bb50bdb65

$$$$
f9b192de-3b35-419f-8a85-804bb50bdb65
  rDOCK(R)          3D
libRbt.so/2013.1/901 2013/11/27
 17 18  0  0  0  0  0  0  0  0999 V2000
   -0.5236   28.1733    1.5789 O   0  0  0  0  0  0
   -1.0789   29.1667    2.0691 C   0  0  0  0  0  0
   -2.1710   28.9509    3.1106 C   0  0  0  0  0  0
   -3.5768   28.0073    2.4251 S   0  0  0  0  0  0
   -4.6202   27.7582    3.7938 C   0  0  0  0  0  0
   -5.6684   26.9579    3.8322 N   0  3  0  0  0  0
   -6.4251   26.9199    4.9911 N   0  0  0  0  0  0
   -5.9031   27.7675    5.8526 C   0  0  0  0  0  0
   -4.5030   28.5983    5.2830 S   0  0  0  0  0  0
   -0.6738   30.5384    1.7398 C   0  0  0  0  0  0
    0.0916   30.9284    0.5767 C   0  0  0  0  0  0
    0.3097   32.2829    0.5259 C   0  0  0  0  0  0
    1.2793   33.1412   -0.8777 Br  0  0  0  0  0  0
   -0.3682   33.1129    1.8283 S   0  0  0  0  0  0
   -0.9706   31.6643    2.4912 C   0  0  0  0  0  0
   -1.9306   31.7090    4.1557 Br  0  0  0  0  0  0
   -5.8309   26.3897    2.9880 H   0  0  0  0  0  0
  1  2  2  0  0  0
  2  3  1  0  0  0
  3  4  1  0  0  0
  4  5  1  0  0  0
  5  6  2  0  0  0
  6  7  1  0  0  0
  7  8  2  0  0  0
  8  9  1  0  0  0
  2 10  1  0  0  0
 10 11  1  0  0  0
 11 12  2  0  0  0
 12 13  1  0  0  0
 12 14  1  0  0  0
 14 15  1  0  0  0
 15 16  1  0  0  0
  9  5  1  0  0  0
 15 10  2  0  0  0
  6 17  1  0  0  0
M  END
>  <CHROM.0>
-59.88758699,179.23886469

>  <CHROM.1>
-61.18893400,175.18129796,-169.44075687,19.19244625,-1.73791121,30.61114884
2.42916446,-3.07094139,0.87153089,0.71950503

>  <Name>
f9b192de-3b35-419f-8a85-804bb50bdb65

>  <RI>
3.72176e+07

>  <Rbt.Current_Directory>
/data/work/jku/5V6S/work/40/8dba899c20c42488f2b1a17844994e

>  <Rbt.Executable>
rbdock ($Id: //depot/dev/client3/rdock/2013.1/src/exe/rbdock.cxx#4 $)

>  <Rbt.Library>
libRbt.so (2013.1, Build901 2013/11/27)

>  <Rbt.Parameter_File>
/rDock_2013.1_src/data/scripts/dock.prm

>  <Rbt.Receptor>
docking.prm

>  <SCORE>
-12.4153

>  <SCORE.INTER>
-13.9601

>  <SCORE.INTER.CONST>
1

>  <SCORE.INTER.POLAR>
0

>  <SCORE.INTER.REPUL>
0

>  <SCORE.INTER.ROT>
4

>  <SCORE.INTER.VDW>
-23.3601

>  <SCORE.INTER.norm>
-0.872509

>  <SCORE.INTRA>
1.81542

>  <SCORE.INTRA.DIHEDRAL>
-4.09926

>  <SCORE.INTRA.DIHEDRAL.0>
5.59332

>  <SCORE.INTRA.POLAR>
0.821241

>  <SCORE.INTRA.POLAR.0>
-0.821241

>  <SCORE.INTRA.REPUL>
0

>  <SCORE.INTRA.REPUL.0>
0

>  <SCORE.INTRA.VDW>
1.07283

>  <SCORE.INTRA.VDW.0>
-0.424019

>  <SCORE.INTRA.norm>
0.113464

>  <SCORE.RESTR>
0

>  <SCORE.RESTR.CAVITY>
0

>  <SCORE.RESTR.norm>
0

>  <SCORE.SYSTEM>
-0.270574

>  <SCORE.SYSTEM.CONST>
0

>  <SCORE.SYSTEM.DIHEDRAL>
0.0104898

>  <SCORE.SYSTEM.VDW>
-0.275819

>  <SCORE.SYSTEM.norm>
-0.0169109

>  <SCORE.heavy>
16

>  <SCORE.norm>
-0.775957

>  <enum_code>
M

>  <enum_smi>
O=C(CSc1[nH+]ncs1)c1cc(Br)sc1Br

>  <sha256>
4fbc411484235e629e48d8624ec40f34931f7851c15a0ea030d44a023231e732

>  <std_smi>
O=C(CSc1nncs1)c1cc(Br)sc1Br

>  <uuid>
f9b192de-3b35-419f-8a85-804bb50bdb65

$$$$
f9b192de-3b35-419f-8a85-804bb50bdb65
  rDOCK(R)          3D
libRbt.so/2013.1/901 2013/11/27
 17 18  0  0  0  0  0  0  0  0999 V2000
   -1.2754   28.3628    0.6351 O   0  0  0  0  0  0
   -1.1131   29.1400    1.5865 C   0  0  0  0  0  0
   -1.3412   28.6181    3.0005 C   0  0  0  0  0  0
   -3.0357   27.9696    3.2127 S   0  0  0  0  0  0
   -2.8304   26.5996    4.2638 C   0  0  0  0  0  0
   -1.7141   25.9185    4.4382 N   0  3  0  0  0  0
   -1.7399   24.8158    5.2752 N   0  0  0  0  0  0
   -2.9674   24.6706    5.7284 C   0  0  0  0  0  0
   -4.0850   25.8576    5.1654 S   0  0  0  0  0  0
   -0.6395   30.5175    1.4066 C   0  0  0  0  0  0
    0.1682   30.9872    0.3031 C   0  0  0  0  0  0
    0.4482   32.3280    0.3952 C   0  0  0  0  0  0
    1.4863   33.2779   -0.8958 Br  0  0  0  0  0  0
   -0.2202   33.0524    1.7640 S   0  0  0  0  0  0
   -0.9018   31.5739    2.2642 C   0  0  0  0  0  0
   -1.8954   31.4944    3.9076 Br  0  0  0  0  0  0
   -0.8840   26.2837    3.9489 H   0  0  0  0  0  0
  1  2  2  0  0  0
  2  3  1  0  0  0
  3  4  1  0  0  0
  4  5  1  0  0  0
  5  6  2  0  0  0
  6  7  1  0  0  0
  7  8  2  0  0  0
  8  9  1  0  0  0
  2 10  1  0  0  0
 10 11  1  0  0  0
 11 12  2  0  0  0
 12 13  1  0  0  0
 12 14  1  0  0  0
 14 15  1  0  0  0
 15 16  1  0  0  0
  9  5  1  0  0  0
 15 10  2  0  0  0
  6 17  1  0  0  0
M  END
>  <CHROM.0>
-59.88758699,68.94319392

>  <CHROM.1>
-58.16449537,143.36770870,-22.31946071,-25.76730262,-1.13046902,30.11855301
2.38256273,-2.43546680,0.98192297,0.15247054

>  <Name>
f9b192de-3b35-419f-8a85-804bb50bdb65

>  <RI>
3.72176e+07

>  <Rbt.Current_Directory>
/data/work/jku/5V6S/work/40/8dba899c20c42488f2b1a17844994e

>  <Rbt.Executable>
rbdock ($Id: //depot/dev/client3/rdock/2013.1/src/exe/rbdock.cxx#4 $)

>  <Rbt.Library>
libRbt.so (2013.1, Build901 2013/11/27)

>  <Rbt.Parameter_File>
/rDock_2013.1_src/data/scripts/dock.prm

>  <Rbt.Receptor>
docking.prm

>  <SCORE>
-13.115

>  <SCORE.INTER>
-14.1467

>  <SCORE.INTER.CONST>
1

>  <SCORE.INTER.POLAR>
0

>  <SCORE.INTER.REPUL>
0

>  <SCORE.INTER.ROT>
4

>  <SCORE.INTER.VDW>
-23.5467

>  <SCORE.INTER.norm>
-0.884167

>  <SCORE.INTRA>
2.54532

>  <SCORE.INTRA.DIHEDRAL>
-0.772784

>  <SCORE.INTRA.DIHEDRAL.0>
5.59332

>  <SCORE.INTRA.POLAR>
0.821241

>  <SCORE.INTRA.POLAR.0>
-0.821241

>  <SCORE.INTRA.REPUL>
0

>  <SCORE.INTRA.REPUL.0>
0

>  <SCORE.INTRA.VDW>
0.139496

>  <SCORE.INTRA.VDW.0>
-0.424019

>  <SCORE.INTRA.norm>
0.159083

>  <SCORE.RESTR>
0

>  <SCORE.RESTR.CAVITY>
0

>  <SCORE.RESTR.norm>
0

>  <SCORE.SYSTEM>
-1.51366

>  <SCORE.SYSTEM.CONST>
0

>  <SCORE.SYSTEM.DIHEDRAL>
0.395161

>  <SCORE.SYSTEM.POLAR>
-0.50295

>  <SCORE.SYSTEM.VDW>
-0.00121421

>  <SCORE.SYSTEM.norm>
-0.094604

>  <SCORE.heavy>
16

>  <SCORE.norm>
-0.819688

>  <enum_code>
M

>  <enum_smi>
O=C(CSc1[nH+]ncs1)c1cc(Br)sc1Br

>  <sha256>
4fbc411484235e629e48d8624ec40f34931f7851c15a0ea030d44a023231e732

>  <std_smi>
O=C(CSc1nncs1)c1cc(Br)sc1Br

>  <uuid>
f9b192de-3b35-419f-8a85-804bb50bdb65

$$$$
f9b192de-3b35-419f-8a85-804bb50bdb65
  rDOCK(R)          3D
libRbt.so/2013.1/901 2013/11/27
 17 18  0  0  0  0  0  0  0  0999 V2000
   -1.8468   28.2932    6.0466 O   0  0  0  0  0  0
   -3.0515   28.4881    5.8318 C   0  0  0  0  0  0
   -3.6048   29.8972    6.0108 C   0  0  0  0  0  0
   -2.2678   31.1390    6.0946 S   0  0  0  0  0  0
   -1.8029   31.3654    4.4343 C   0  0  0  0  0  0
   -1.5598   32.5230    3.8498 N   0  3  0  0  0  0
   -1.2531   32.5268    2.4996 N   0  0  0  0  0  0
   -1.2945   31.2852    2.0637 C   0  0  0  0  0  0
   -1.6865   30.1147    3.2684 S   0  0  0  0  0  0
   -3.9453   27.4320    5.3420 C   0  0  0  0  0  0
   -5.3079   27.6276    4.8993 C   0  0  0  0  0  0
   -5.8945   26.4580    4.4839 C   0  0  0  0  0  0
   -7.6856   26.3528    3.8301 Br  0  0  0  0  0  0
   -4.8712   25.1228    4.6073 S   0  0  0  0  0  0
   -3.6139   26.0916    5.2248 C   0  0  0  0  0  0
   -1.9418   25.2791    5.7130 Br  0  0  0  0  0  0
   -1.5907   33.3509    4.4626 H   0  0  0  0  0  0
  1  2  2  0  0  0
  2  3  1  0  0  0
  3  4  1  0  0  0
  4  5  1  0  0  0
  5  6  2  0  0  0
  6  7  1  0  0  0
  7  8  2  0  0  0
  8  9  1  0  0  0
  2 10  1  0  0  0
 10 11  1  0  0  0
 11 12  2  0  0  0
 12 13  1  0  0  0
 12 14  1  0  0  0
 14 15  1  0  0  0
 15 16  1  0  0  0
  9  5  1  0  0  0
 15 10  2  0  0  0
  6 17  1  0  0  0
M  END
>  <CHROM.0>
-59.88758699,178.22483702

>  <CHROM.1>
15.08173772,78.67711107,136.46692901,-171.12487804,-3.68754962,27.81691950
4.68585841,-0.83433157,0.29550463,2.84102164

>  <Name>
f9b192de-3b35-419f-8a85-804bb50bdb65

>  <RI>
3.72176e+07

>  <Rbt.Current_Directory>
/data/work/jku/5V6S/work/40/8dba899c20c42488f2b1a17844994e

>  <Rbt.Executable>
rbdock ($Id: //depot/dev/client3/rdock/2013.1/src/exe/rbdock.cxx#4 $)

>  <Rbt.Library>
libRbt.so (2013.1, Build901 2013/11/27)

>  <Rbt.Parameter_File>
/rDock_2013.1_src/data/scripts/dock.prm

>  <Rbt.Receptor>
docking.prm

>  <SCORE>
-14.7652

>  <SCORE.INTER>
-15.874

>  <SCORE.INTER.CONST>
1

>  <SCORE.INTER.POLAR>
-1.34164

>  <SCORE.INTER.REPUL>
0

>  <SCORE.INTER.ROT>
4

>  <SCORE.INTER.VDW>
-20.7124

>  <SCORE.INTER.norm>
-0.992123

>  <SCORE.INTRA>
1.37337

>  <SCORE.INTRA.DIHEDRAL>
-1.10814

>  <SCORE.INTRA.DIHEDRAL.0>
5.59332

>  <SCORE.INTRA.POLAR>
0.821241

>  <SCORE.INTRA.POLAR.0>
-0.821241

>  <SCORE.INTRA.REPUL>
0

>  <SCORE.INTRA.REPUL.0>
0

>  <SCORE.INTRA.VDW>
-0.864777

>  <SCORE.INTRA.VDW.0>
-0.424019

>  <SCORE.INTRA.norm>
0.0858359

>  <SCORE.RESTR>
0

>  <SCORE.RESTR.CAVITY>
0

>  <SCORE.RESTR.norm>
0

>  <SCORE.SYSTEM>
-0.264592

>  <SCORE.SYSTEM.CONST>
0

>  <SCORE.SYSTEM.DIHEDRAL>
0.0231707

>  <SCORE.SYSTEM.VDW>
-0.276178

>  <SCORE.SYSTEM.norm>
-0.016537

>  <SCORE.heavy>
16

>  <SCORE.norm>
-0.922825

>  <enum_code>
M

>  <enum_smi>
O=C(CSc1[nH+]ncs1)c1cc(Br)sc1Br

>  <sha256>
4fbc411484235e629e48d8624ec40f34931f7851c15a0ea030d44a023231e732

>  <std_smi>
O=C(CSc1nncs1)c1cc(Br)sc1Br

>  <uuid>
f9b192de-3b35-419f-8a85-804bb50bdb65

$$$$
f9b192de-3b35-419f-8a85-804bb50bdb65
  rDOCK(R)          3D
libRbt.so/2013.1/901 2013/11/27
 17 18  0  0  0  0  0  0  0  0999 V2000
   -3.0505   27.6927    1.7190 O   0  0  0  0  0  0
   -2.2397   28.3665    2.3702 C   0  0  0  0  0  0
   -1.2751   27.6436    3.3035 C   0  0  0  0  0  0
   -2.1566   26.5203    4.4427 S   0  0  0  0  0  0
   -1.2325   25.0487    4.3769 C   0  0  0  0  0  0
   -1.6634   23.8486    4.7157 N   0  3  0  0  0  0
   -0.7747   22.7886    4.6540 N   0  0  0  0  0  0
    0.3932   23.2519    4.2607 C   0  0  0  0  0  0
    0.4251   24.9488    3.9530 S   0  0  0  0  0  0
   -2.1250   29.8221    2.2205 C   0  0  0  0  0  0
   -1.4713   30.7105    3.1555 C   0  0  0  0  0  0
   -1.5102   32.0200    2.7451 C   0  0  0  0  0  0
   -0.7372   33.4574    3.7367 Br  0  0  0  0  0  0
   -2.3081   32.2304    1.2740 S   0  0  0  0  0  0
   -2.6203   30.5602    1.1574 C   0  0  0  0  0  0
   -3.6114   29.8823   -0.3434 Br  0  0  0  0  0  0
   -2.6575   23.7863    4.9798 H   0  0  0  0  0  0
  1  2  2  0  0  0
  2  3  1  0  0  0
  3  4  1  0  0  0
  4  5  1  0  0  0
  5  6  2  0  0  0
  6  7  1  0  0  0
  7  8  2  0  0  0
  8  9  1  0  0  0
  2 10  1  0  0  0
 10 11  1  0  0  0
 11 12  2  0  0  0
 12 13  1  0  0  0
 12 14  1  0  0  0
 14 15  1  0  0  0
 15 16  1  0  0  0
  9  5  1  0  0  0
 15 10  2  0  0  0
  6 17  1  0  0  0
M  END
>  <CHROM.0>
-59.88758699,69.13377388

>  <CHROM.1>
-52.39955831,133.90669462,-159.44584049,163.30141719,-1.77343377,29.18383125
2.59862203,1.35452474,0.95552431,3.06128091

>  <Name>
f9b192de-3b35-419f-8a85-804bb50bdb65

>  <RI>
3.72176e+07

>  <Rbt.Current_Directory>
/data/work/jku/5V6S/work/40/8dba899c20c42488f2b1a17844994e

>  <Rbt.Executable>
rbdock ($Id: //depot/dev/client3/rdock/2013.1/src/exe/rbdock.cxx#4 $)

>  <Rbt.Library>
libRbt.so (2013.1, Build901 2013/11/27)

>  <Rbt.Parameter_File>
/rDock_2013.1_src/data/scripts/dock.prm

>  <Rbt.Receptor>
docking.prm

>  <SCORE>
-11.054

>  <SCORE.INTER>
-11.1733

>  <SCORE.INTER.CONST>
1

>  <SCORE.INTER.POLAR>
-0.018162

>  <SCORE.INTER.REPUL>
0

>  <SCORE.INTER.ROT>
4

>  <SCORE.INTER.VDW>
-20.5116

>  <SCORE.INTER.norm>
-0.698332

>  <SCORE.INTRA>
1.62955

>  <SCORE.INTRA.DIHEDRAL>
-1.3527

>  <SCORE.INTRA.DIHEDRAL.0>
5.59332

>  <SCORE.INTRA.POLAR>
0.821241

>  <SCORE.INTRA.POLAR.0>
-0.821241

>  <SCORE.INTRA.REPUL>
0

>  <SCORE.INTRA.REPUL.0>
0

>  <SCORE.INTRA.VDW>
-0.486319

>  <SCORE.INTRA.VDW.0>
-0.424019

>  <SCORE.INTRA.norm>
0.101847

>  <SCORE.RESTR>
0.00315429

>  <SCORE.RESTR.CAVITY>
0.00315429

>  <SCORE.RESTR.norm>
0.000197143

>  <SCORE.SYSTEM>
-1.51343

>  <SCORE.SYSTEM.CONST>
0

>  <SCORE.SYSTEM.DIHEDRAL>
0.411534

>  <SCORE.SYSTEM.POLAR>
-0.50306

>  <SCORE.SYSTEM.VDW>
-0.00879349

>  <SCORE.SYSTEM.norm>
-0.0945895

>  <SCORE.heavy>
16

>  <SCORE.norm>
-0.690878

>  <enum_code>
M

>  <enum_smi>
O=C(CSc1[nH+]ncs1)c1cc(Br)sc1Br

>  <sha256>
4fbc411484235e629e48d8624ec40f34931f7851c15a0ea030d44a023231e732

>  <std_smi>
O=C(CSc1nncs1)c1cc(Br)sc1Br

>  <uuid>
f9b192de-3b35-419f-8a85-804bb50bdb65

$$$$
276e4ef4-028a-465d-8f14-8bfdb19de869
  rDOCK(R)          3D
libRbt.so/2013.1/901 2013/11/27
 17 18  0  0  0  0  0  0  0  0999 V2000
   -1.1716   28.6652    3.8090 O   0  0  0  0  0  0
   -2.2319   28.4165    3.2343 C   0  0  0  0  0  0
   -2.4871   28.9224    1.8218 C   0  0  0  0  0  0
   -1.0162   29.7806    1.1771 S   0  0  0  0  0  0
   -1.0033   31.2611    2.0959 C   0  0  0  0  0  0
   -1.6926   31.3626    3.2134 N   0  0  0  0  0  0
   -1.4699   32.6067    3.7681 N   0  3  0  0  0  0
   -0.6579   33.4291    3.1351 C   0  0  0  0  0  0
   -0.0760   32.6645    1.7164 S   0  0  0  0  0  0
   -3.2496   27.6077    3.9127 C   0  0  0  0  0  0
   -4.5347   27.3204    3.3179 C   0  0  0  0  0  0
   -5.3294   26.5615    4.1375 C   0  0  0  0  0  0
   -7.1032   26.0200    3.6843 Br  0  0  0  0  0  0
   -4.5750   26.1506    5.5919 S   0  0  0  0  0  0
   -3.1520   26.9723    5.1368 C   0  0  0  0  0  0
   -1.6028   26.8840    6.2688 Br  0  0  0  0  0  0
   -1.8867   32.9397    4.6405 H   0  0  0  0  0  0
  1  2  2  0  0  0
  2  3  1  0  0  0
  3  4  1  0  0  0
  4  5  1  0  0  0
  5  6  2  0  0  0
  6  7  1  0  0  0
  7  8  2  0  0  0
  8  9  1  0  0  0
  2 10  1  0  0  0
 10 11  1  0  0  0
 11 12  2  0  0  0
 12 13  1  0  0  0
 12 14  1  0  0  0
 14 15  1  0  0  0
 15 16  1  0  0  0
  9  5  1  0  0  0
 15 10  2  0  0  0
  7 17  1  0  0  0
M  END
>  <CHROM.0>
-59.88758699,178.71329057

>  <CHROM.1>
3.57967151,-71.82624590,17.95624161,177.60963621,-3.05270085,28.27874109
3.89581131,-0.75479122,0.46522472,2.33991553

>  <Name>
276e4ef4-028a-465d-8f14-8bfdb19de869

>  <RI>
3.79221e+07

>  <Rbt.Current_Directory>
/data/work/jku/5V6S/work/40/8dba899c20c42488f2b1a17844994e

>  <Rbt.Executable>
rbdock ($Id: //depot/dev/client3/rdock/2013.1/src/exe/rbdock.cxx#4 $)

>  <Rbt.Library>
libRbt.so (2013.1, Build901 2013/11/27)

>  <Rbt.Parameter_File>
/rDock_2013.1_src/data/scripts/dock.prm

>  <Rbt.Receptor>
docking.prm

>  <SCORE>
-19.273

>  <SCORE.INTER>
-17.4686

>  <SCORE.INTER.CONST>
1

>  <SCORE.INTER.POLAR>
-1.34164

>  <SCORE.INTER.REPUL>
0

>  <SCORE.INTER.ROT>
4

>  <SCORE.INTER.VDW>
-22.307

>  <SCORE.INTER.norm>
-1.09178

>  <SCORE.INTRA>
-1.53634

>  <SCORE.INTRA.DIHEDRAL>
-4.41429

>  <SCORE.INTRA.DIHEDRAL.0>
7.43908

>  <SCORE.INTRA.POLAR>
0

>  <SCORE.INTRA.POLAR.0>
0

>  <SCORE.INTRA.REPUL>
0

>  <SCORE.INTRA.REPUL.0>
0

>  <SCORE.INTRA.VDW>
0.670808

>  <SCORE.INTRA.VDW.0>
-1.21464

>  <SCORE.INTRA.norm>
-0.0960211

>  <SCORE.RESTR>
0

>  <SCORE.RESTR.CAVITY>
0

>  <SCORE.RESTR.norm>
0

>  <SCORE.SYSTEM>
-0.268096

>  <SCORE.SYSTEM.CONST>
0

>  <SCORE.SYSTEM.DIHEDRAL>
0.0157984

>  <SCORE.SYSTEM.VDW>
-0.275995

>  <SCORE.SYSTEM.norm>
-0.016756

>  <SCORE.heavy>
16

>  <SCORE.norm>
-1.20456

>  <enum_code>
M

>  <enum_smi>
O=C(CSc1n[nH+]cs1)c1cc(Br)sc1Br

>  <sha256>
4fbc411484235e629e48d8624ec40f34931f7851c15a0ea030d44a023231e732

>  <std_smi>
O=C(CSc1nncs1)c1cc(Br)sc1Br

>  <uuid>
276e4ef4-028a-465d-8f14-8bfdb19de869

$$$$
276e4ef4-028a-465d-8f14-8bfdb19de869
  rDOCK(R)          3D
libRbt.so/2013.1/901 2013/11/27
 17 18  0  0  0  0  0  0  0  0999 V2000
   -4.2611   27.5495    2.7487 O   0  0  0  0  0  0
   -3.3180   27.5746    3.5402 C   0  0  0  0  0  0
   -2.5315   28.8570    3.7709 C   0  0  0  0  0  0
   -1.6784   29.3644    2.2443 S   0  0  0  0  0  0
   -1.2934   31.0346    2.5578 C   0  0  0  0  0  0
   -1.6535   31.6046    3.6891 N   0  0  0  0  0  0
   -1.1835   32.9022    3.7087 N   0  3  0  0  0  0
   -0.4964   33.3264    2.6674 C   0  0  0  0  0  0
   -0.3775   32.0610    1.5182 S   0  0  0  0  0  0
   -2.9636   26.3602    4.2814 C   0  0  0  0  0  0
   -1.7368   26.2426    5.0357 C   0  0  0  0  0  0
   -1.6089   25.0154    5.6332 C   0  0  0  0  0  0
   -0.0988   24.5029    6.6829 Br  0  0  0  0  0  0
   -2.9296   24.0018    5.3476 S   0  0  0  0  0  0
   -3.7109   25.2060    4.4275 C   0  0  0  0  0  0
   -5.4908   24.8958    3.7755 Br  0  0  0  0  0  0
   -1.3255   33.5627    4.4764 H   0  0  0  0  0  0
  1  2  2  0  0  0
  2  3  1  0  0  0
  3  4  1  0  0  0
  4  5  1  0  0  0
  5  6  2  0  0  0
  6  7  1  0  0  0
  7  8  2  0  0  0
  8  9  1  0  0  0
  2 10  1  0  0  0
 10 11  1  0  0  0
 11 12  2  0  0  0
 12 13  1  0  0  0
 12 14  1  0  0  0
 14 15  1  0  0  0
 15 16  1  0  0  0
  9  5  1  0  0  0
 15 10  2  0  0  0
  7 17  1  0  0  0
M  END
>  <CHROM.0>
-59.88758699,67.33568464

>  <CHROM.1>
-64.02006469,162.62787406,-1.17299528,168.53926032,-2.33135503,27.09395701
4.18450890,1.33484016,-0.44047818,-0.47604138

>  <Name>
276e4ef4-028a-465d-8f14-8bfdb19de869

>  <RI>
3.79221e+07

>  <Rbt.Current_Directory>
/data/work/jku/5V6S/work/40/8dba899c20c42488f2b1a17844994e

>  <Rbt.Executable>
rbdock ($Id: //depot/dev/client3/rdock/2013.1/src/exe/rbdock.cxx#4 $)

>  <Rbt.Library>
libRbt.so (2013.1, Build901 2013/11/27)

>  <Rbt.Parameter_File>
/rDock_2013.1_src/data/scripts/dock.prm

>  <Rbt.Receptor>
docking.prm

>  <SCORE>
-20.2228

>  <SCORE.INTER>
-16.3004

>  <SCORE.INTER.CONST>
1

>  <SCORE.INTER.POLAR>
-1.34164

>  <SCORE.INTER.REPUL>
0

>  <SCORE.INTER.ROT>
4

>  <SCORE.INTER.VDW>
-21.1388

>  <SCORE.INTER.norm>
-1.01877

>  <SCORE.INTRA>
-2.42067

>  <SCORE.INTRA.DIHEDRAL>
-6.10278

>  <SCORE.INTRA.DIHEDRAL.0>
7.43908

>  <SCORE.INTRA.POLAR>
0

>  <SCORE.INTRA.POLAR.0>
0

>  <SCORE.INTRA.REPUL>
0

>  <SCORE.INTRA.REPUL.0>
0

>  <SCORE.INTRA.VDW>
0.630719

>  <SCORE.INTRA.VDW.0>
-1.21464

>  <SCORE.INTRA.norm>
-0.151292

>  <SCORE.RESTR>
0

>  <SCORE.RESTR.CAVITY>
0

>  <SCORE.RESTR.norm>
0

>  <SCORE.SYSTEM>
-1.50178

>  <SCORE.SYSTEM.CONST>
0

>  <SCORE.SYSTEM.DIHEDRAL>
0.269935

>  <SCORE.SYSTEM.POLAR>
-0.500834

>  <SCORE.SYSTEM.VDW>
0.0660831

>  <SCORE.SYSTEM.norm>
-0.0938615

>  <SCORE.heavy>
16

>  <SCORE.norm>
-1.26393

>  <enum_code>
M

>  <enum_smi>
O=C(CSc1n[nH+]cs1)c1cc(Br)sc1Br

>  <sha256>
4fbc411484235e629e48d8624ec40f34931f7851c15a0ea030d44a023231e732

>  <std_smi>
O=C(CSc1nncs1)c1cc(Br)sc1Br

>  <uuid>
276e4ef4-028a-465d-8f14-8bfdb19de869

$$$$
276e4ef4-028a-465d-8f14-8bfdb19de869
  rDOCK(R)          3D
libRbt.so/2013.1/901 2013/11/27
 17 18  0  0  0  0  0  0  0  0999 V2000
   -2.9214   28.6754    3.9989 O   0  0  0  0  0  0
   -2.0135   27.9293    3.6310 C   0  0  0  0  0  0
   -0.9352   28.4284    2.6799 C   0  0  0  0  0  0
   -1.6529   29.5436    1.4322 S   0  0  0  0  0  0
   -1.4303   31.1156    2.1503 C   0  0  0  0  0  0
   -1.7908   31.3402    3.3969 N   0  0  0  0  0  0
   -1.4594   32.6368    3.7344 N   0  3  0  0  0  0
   -0.8739   33.3831    2.8197 C   0  0  0  0  0  0
   -0.6807   32.4667    1.3849 S   0  0  0  0  0  0
   -1.9618   26.5520    4.1314 C   0  0  0  0  0  0
   -0.7867   25.7219    3.9972 C   0  0  0  0  0  0
   -0.9718   24.4693    4.5225 C   0  0  0  0  0  0
    0.3611   23.1028    4.4922 Br  0  0  0  0  0  0
   -2.5028   24.2595    5.2044 S   0  0  0  0  0  0
   -2.9411   25.8623    4.8222 C   0  0  0  0  0  0
   -4.6326   26.5505    5.4174 Br  0  0  0  0  0  0
   -1.6312   33.0642    4.6475 H   0  0  0  0  0  0
  1  2  2  0  0  0
  2  3  1  0  0  0
  3  4  1  0  0  0
  4  5  1  0  0  0
  5  6  2  0  0  0
  6  7  1  0  0  0
  7  8  2  0  0  0
  8  9  1  0  0  0
  2 10  1  0  0  0
 10 11  1  0  0  0
 11 12  2  0  0  0
 12 13  1  0  0  0
 12 14  1  0  0  0
 14 15  1  0  0  0
 15 16  1  0  0  0
  9  5  1  0  0  0
 15 10  2  0  0  0
  7 17  1  0  0  0
M  END
>  <CHROM.0>
-59.88758699,177.58643847

>  <CHROM.1>
-37.91733919,93.25459080,-49.25525493,-165.53393631,-1.83716657,27.22923548
3.92686553,1.59497117,0.42672372,-0.31957817

>  <Name>
276e4ef4-028a-465d-8f14-8bfdb19de869

>  <RI>
3.79221e+07

>  <Rbt.Current_Directory>
/data/work/jku/5V6S/work/40/8dba899c20c42488f2b1a17844994e

>  <Rbt.Executable>
rbdock ($Id: //depot/dev/client3/rdock/2013.1/src/exe/rbdock.cxx#4 $)

>  <Rbt.Library>
libRbt.so (2013.1, Build901 2013/11/27)

>  <Rbt.Parameter_File>
/rDock_2013.1_src/data/scripts/dock.prm

>  <Rbt.Receptor>
docking.prm

>  <SCORE>
-17.3744

>  <SCORE.INTER>
-16.1782

>  <SCORE.INTER.CONST>
1

>  <SCORE.INTER.POLAR>
-1.34164

>  <SCORE.INTER.REPUL>
0

>  <SCORE.INTER.ROT>
4

>  <SCORE.INTER.VDW>
-21.0167

>  <SCORE.INTER.norm>
-1.01114

>  <SCORE.INTRA>
-0.937901

>  <SCORE.INTRA.DIHEDRAL>
-2.15032

>  <SCORE.INTRA.DIHEDRAL.0>
7.43908

>  <SCORE.INTRA.POLAR>
0

>  <SCORE.INTRA.POLAR.0>
0

>  <SCORE.INTRA.REPUL>
0

>  <SCORE.INTRA.REPUL.0>
0

>  <SCORE.INTRA.VDW>
0.137261

>  <SCORE.INTRA.VDW.0>
-1.21464

>  <SCORE.INTRA.norm>
-0.0586188

>  <SCORE.RESTR>
0

>  <SCORE.RESTR.CAVITY>
0

>  <SCORE.RESTR.norm>
0

>  <SCORE.SYSTEM>
-0.258275

>  <SCORE.SYSTEM.CONST>
0

>  <SCORE.SYSTEM.DIHEDRAL>
0.0363397

>  <SCORE.SYSTEM.VDW>
-0.276445

>  <SCORE.SYSTEM.norm>
-0.0161422

>  <SCORE.heavy>
16

>  <SCORE.norm>
-1.0859

>  <enum_code>
M

>  <enum_smi>
O=C(CSc1n[nH+]cs1)c1cc(Br)sc1Br

>  <sha256>
4fbc411484235e629e48d8624ec40f34931f7851c15a0ea030d44a023231e732

>  <std_smi>
O=C(CSc1nncs1)c1cc(Br)sc1Br

>  <uuid>
276e4ef4-028a-465d-8f14-8bfdb19de869

$$$$
276e4ef4-028a-465d-8f14-8bfdb19de869
  rDOCK(R)          3D
libRbt.so/2013.1/901 2013/11/27
 17 18  0  0  0  0  0  0  0  0999 V2000
   -1.3338   28.2517    1.8438 O   0  0  0  0  0  0
   -1.3205   29.1389    2.6977 C   0  0  0  0  0  0
   -1.6613   28.8267    4.1477 C   0  0  0  0  0  0
   -2.6744   27.3173    4.2532 S   0  0  0  0  0  0
   -1.4898   26.0492    4.0955 C   0  0  0  0  0  0
   -0.3069   26.2981    3.5730 N   0  0  0  0  0  0
    0.4540   25.1473    3.6133 N   0  3  0  0  0  0
   -0.0885   24.0657    4.1352 C   0  0  0  0  0  0
   -1.6836   24.4268    4.6463 S   0  0  0  0  0  0
   -0.9529   30.5057    2.3145 C   0  0  0  0  0  0
   -0.2804   30.8082    1.0719 C   0  0  0  0  0  0
   -0.0227   32.1474    0.9324 C   0  0  0  0  0  0
    0.8790   32.8991   -0.5732 Br  0  0  0  0  0  0
   -0.5893   33.0670    2.2309 S   0  0  0  0  0  0
   -1.2122   31.6784    2.9996 C   0  0  0  0  0  0
   -2.2259   31.8659    4.6203 Br  0  0  0  0  0  0
    1.4143   25.0703    3.2703 H   0  0  0  0  0  0
  1  2  2  0  0  0
  2  3  1  0  0  0
  3  4  1  0  0  0
  4  5  1  0  0  0
  5  6  2  0  0  0
  6  7  1  0  0  0
  7  8  2  0  0  0
  8  9  1  0  0  0
  2 10  1  0  0  0
 10 11  1  0  0  0
 11 12  2  0  0  0
 12 13  1  0  0  0
 12 14  1  0  0  0
 14 15  1  0  0  0
 15 16  1  0  0  0
  9  5  1  0  0  0
 15 10  2  0  0  0
  7 17  1  0  0  0
M  END
>  <CHROM.0>
-59.88758699,69.17212897

>  <CHROM.1>
-22.98596167,79.53301804,-19.55662443,-16.20359846,-0.92795759,29.93183729
2.73293736,-1.89353410,0.96033257,-0.19278138

>  <Name>
276e4ef4-028a-465d-8f14-8bfdb19de869

>  <RI>
3.79221e+07

>  <Rbt.Current_Directory>
/data/work/jku/5V6S/work/40/8dba899c20c42488f2b1a17844994e

>  <Rbt.Executable>
rbdock ($Id: //depot/dev/client3/rdock/2013.1/src/exe/rbdock.cxx#4 $)

>  <Rbt.Library>
libRbt.so (2013.1, Build901 2013/11/27)

>  <Rbt.Parameter_File>
/rDock_2013.1_src/data/scripts/dock.prm

>  <Rbt.Receptor>
docking.prm

>  <SCORE>
-17.845

>  <SCORE.INTER>
-15.368

>  <SCORE.INTER.CONST>
1

>  <SCORE.INTER.POLAR>
0

>  <SCORE.INTER.REPUL>
0

>  <SCORE.INTER.ROT>
4

>  <SCORE.INTER.VDW>
-24.768

>  <SCORE.INTER.norm>
-0.9605

>  <SCORE.INTRA>
-0.967108

>  <SCORE.INTRA.DIHEDRAL>
-3.48846

>  <SCORE.INTRA.DIHEDRAL.0>
7.43908

>  <SCORE.INTRA.POLAR>
0

>  <SCORE.INTRA.POLAR.0>
0

>  <SCORE.INTRA.REPUL>
0

>  <SCORE.INTRA.REPUL.0>
0

>  <SCORE.INTRA.VDW>
0.777122

>  <SCORE.INTRA.VDW.0>
-1.21464

>  <SCORE.INTRA.norm>
-0.0604443

>  <SCORE.RESTR>
0.00341346

>  <SCORE.RESTR.CAVITY>
0.00341346

>  <SCORE.RESTR.norm>
0.000213341

>  <SCORE.SYSTEM>
-1.51334

>  <SCORE.SYSTEM.CONST>
0

>  <SCORE.SYSTEM.DIHEDRAL>
0.414868

>  <SCORE.SYSTEM.POLAR>
-0.503079

>  <SCORE.SYSTEM.VDW>
-0.0103089

>  <SCORE.SYSTEM.norm>
-0.094584

>  <SCORE.heavy>
16

>  <SCORE.norm>
-1.11532

>  <enum_code>
M

>  <enum_smi>
O=C(CSc1n[nH+]cs1)c1cc(Br)sc1Br

>  <sha256>
4fbc411484235e629e48d8624ec40f34931f7851c15a0ea030d44a023231e732

>  <std_smi>
O=C(CSc1nncs1)c1cc(Br)sc1Br

>  <uuid>
276e4ef4-028a-465d-8f14-8bfdb19de869

$$$$
276e4ef4-028a-465d-8f14-8bfdb19de869
  rDOCK(R)          3D
libRbt.so/2013.1/901 2013/11/27
 17 18  0  0  0  0  0  0  0  0999 V2000
   -0.4152   28.2638    0.9941 O   0  0  0  0  0  0
   -1.0247   29.1527    1.5896 C   0  0  0  0  0  0
   -2.2028   28.8162    2.4925 C   0  0  0  0  0  0
   -1.7259   27.5585    3.7198 S   0  0  0  0  0  0
   -3.2458   27.1655    4.4758 C   0  0  0  0  0  0
   -4.3387   27.8345    4.1716 N   0  0  0  0  0  0
   -5.4041   27.2940    4.8626 N   0  3  0  0  0  0
   -5.1702   26.2668    5.6542 C   0  0  0  0  0  0
   -3.5034   25.8749    5.5900 S   0  0  0  0  0  0
   -0.5967   30.5473    1.4412 C   0  0  0  0  0  0
    0.1677   31.0068    0.3043 C   0  0  0  0  0  0
    0.4686   32.3418    0.3851 C   0  0  0  0  0  0
    1.4911   33.2762   -0.9289 Br  0  0  0  0  0  0
   -0.1625   33.0780    1.7681 S   0  0  0  0  0  0
   -0.8725   31.6137    2.2771 C   0  0  0  0  0  0
   -1.9905   31.5943    3.8387 Br  0  0  0  0  0  0
   -6.3684   27.6295    4.8038 H   0  0  0  0  0  0
  1  2  2  0  0  0
  2  3  1  0  0  0
  3  4  1  0  0  0
  4  5  1  0  0  0
  5  6  2  0  0  0
  6  7  1  0  0  0
  7  8  2  0  0  0
  8  9  1  0  0  0
  2 10  1  0  0  0
 10 11  1  0  0  0
 11 12  2  0  0  0
 12 13  1  0  0  0
 12 14  1  0  0  0
 14 15  1  0  0  0
 15 16  1  0  0  0
  9  5  1  0  0  0
 15 10  2  0  0  0
  7 17  1  0  0  0
M  END
>  <CHROM.0>
-59.88758699,68.43057751

>  <CHROM.1>
53.35750794,-172.26412995,-5.54093309,22.69233692,-1.30040627,30.34075402
2.41724669,-2.55378139,0.90161620,0.16178140

>  <Name>
276e4ef4-028a-465d-8f14-8bfdb19de869

>  <RI>
3.79221e+07

>  <Rbt.Current_Directory>
/data/work/jku/5V6S/work/40/8dba899c20c42488f2b1a17844994e

>  <Rbt.Executable>
rbdock ($Id: //depot/dev/client3/rdock/2013.1/src/exe/rbdock.cxx#4 $)

>  <Rbt.Library>
libRbt.so (2013.1, Build901 2013/11/27)

>  <Rbt.Parameter_File>
/rDock_2013.1_src/data/scripts/dock.prm

>  <Rbt.Receptor>
docking.prm

>  <SCORE>
-18.0015

>  <SCORE.INTER>
-14.6412

>  <SCORE.INTER.CONST>
1

>  <SCORE.INTER.POLAR>
0

>  <SCORE.INTER.REPUL>
0

>  <SCORE.INTER.ROT>
4

>  <SCORE.INTER.VDW>
-24.0412

>  <SCORE.INTER.norm>
-0.915074

>  <SCORE.INTRA>
-1.84776

>  <SCORE.INTRA.DIHEDRAL>
-5.52447

>  <SCORE.INTRA.DIHEDRAL.0>
7.43908

>  <SCORE.INTRA.POLAR>
0

>  <SCORE.INTRA.POLAR.0>
0

>  <SCORE.INTRA.REPUL>
0

>  <SCORE.INTRA.REPUL.0>
0

>  <SCORE.INTRA.VDW>
0.91447

>  <SCORE.INTRA.VDW.0>
-1.21464

>  <SCORE.INTRA.norm>
-0.115485

>  <SCORE.RESTR>
0

>  <SCORE.RESTR.CAVITY>
0

>  <SCORE.RESTR.norm>
0

>  <SCORE.SYSTEM>
-1.51258

>  <SCORE.SYSTEM.CONST>
0

>  <SCORE.SYSTEM.DIHEDRAL>
0.352712

>  <SCORE.SYSTEM.POLAR>
-0.502506

>  <SCORE.SYSTEM.VDW>
0.0195864

>  <SCORE.SYSTEM.norm>
-0.0945361

>  <SCORE.heavy>
16

>  <SCORE.norm>
-1.12509

>  <enum_code>
M

>  <enum_smi>
O=C(CSc1n[nH+]cs1)c1cc(Br)sc1Br

>  <sha256>
4fbc411484235e629e48d8624ec40f34931f7851c15a0ea030d44a023231e732

>  <std_smi>
O=C(CSc1nncs1)c1cc(Br)sc1Br

>  <uuid>
276e4ef4-028a-465d-8f14-8bfdb19de869

$$$$
f8faa166-43bd-4b33-a59c-89b640e7580b
  rDOCK(R)          3D
libRbt.so/2013.1/901 2013/11/27
 24 26  0  0  0  0  0  0  0  0999 V2000
   -4.2092   33.0142    4.1218 C   0  0  0  0  0  0
   -3.6656   31.6723    3.7637 C   0  0  0  0  0  0
   -3.7647   31.3525    2.3030 C   0  0  0  0  0  0
   -4.3219   30.6246    4.4515 O   0  0  0  0  0  0
   -3.3375   29.5397    4.2402 B   0  0  0  0  0  0
   -3.6842   28.0434    4.0484 C   0  0  0  0  0  0
   -4.9035   27.7057    3.4972 C   0  0  0  0  0  0
   -5.2118   26.3511    3.3260 C   0  0  0  0  0  0
   -4.3216   25.3828    3.6980 C   0  0  0  0  0  0
   -4.6455   23.8826    3.5163 B   0  0  0  0  0  0
   -5.6160   23.3764    2.5543 O   0  0  0  0  0  0
   -5.8197   22.0350    2.8463 C   0  0  0  0  0  0
   -5.8617   21.2803    1.5330 C   0  0  0  0  0  0
   -7.1117   21.9102    3.5928 C   0  0  0  0  0  0
   -4.6123   21.6814    3.6662 C   0  0  0  0  0  0
   -3.4034   21.6208    2.7650 C   0  0  0  0  0  0
   -4.7685   20.3948    4.4269 C   0  0  0  0  0  0
   -4.4706   22.7870    4.4953 O   0  0  0  0  0  0
   -3.1093   25.7348    4.2465 C   0  0  0  0  0  0
   -2.7781   27.0811    4.4276 C   0  0  0  0  0  0
   -2.0417   30.1183    3.8946 O   0  0  0  0  0  0
   -2.2396   31.4579    4.2376 C   0  0  0  0  0  0
   -1.2647   32.3715    3.5470 C   0  0  0  0  0  0
   -2.1429   31.5557    5.7428 C   0  0  0  0  0  0
  1  2  1  0  0  0
  2  3  1  0  0  0
  2  4  1  0  0  0
  4  5  1  0  0  0
  5  6  1  0  0  0
  6  7  2  0  0  0
  7  8  1  0  0  0
  8  9  2  0  0  0
  9 10  1  0  0  0
 10 11  1  0  0  0
 11 12  1  0  0  0
 12 13  1  0  0  0
 12 14  1  0  0  0
 12 15  1  0  0  0
 15 16  1  0  0  0
 15 17  1  0  0  0
 15 18  1  0  0  0
  9 19  1  0  0  0
 19 20  2  0  0  0
  5 21  1  0  0  0
 21 22  1  0  0  0
 22 23  1  0  0  0
 22 24  1  0  0  0
 22  2  1  0  0  0
 20  6  1  0  0  0
 18 10  1  0  0  0
M  END
>  <CHROM.0>
-59.88758699,68.89243888

>  <CHROM.1>
28.05402047,22.93203924,-4.05786228,26.70684585,3.69884065,1.31412423,-0.45456121
-0.03192168

>  <Name>
f8faa166-43bd-4b33-a59c-89b640e7580b

>  <RI>
2.9898e+07

>  <Rbt.Current_Directory>
/data/work/jku/5V6S/work/40/8dba899c20c42488f2b1a17844994e

>  <Rbt.Executable>
rbdock ($Id: //depot/dev/client3/rdock/2013.1/src/exe/rbdock.cxx#4 $)

>  <Rbt.Library>
libRbt.so (2013.1, Build901 2013/11/27)

>  <Rbt.Parameter_File>
/rDock_2013.1_src/data/scripts/dock.prm

>  <Rbt.Receptor>
docking.prm

>  <SCORE>
-7.08529

>  <SCORE.INTER>
-5.94496

>  <SCORE.INTER.CONST>
1

>  <SCORE.INTER.POLAR>
0

>  <SCORE.INTER.REPUL>
0

>  <SCORE.INTER.ROT>
2

>  <SCORE.INTER.VDW>
-13.345

>  <SCORE.INTER.norm>
-0.247707

>  <SCORE.INTRA>
0.144145

>  <SCORE.INTRA.DIHEDRAL>
3.39996e-05

>  <SCORE.INTRA.DIHEDRAL.0>
1.59997

>  <SCORE.INTRA.POLAR>
0

>  <SCORE.INTRA.POLAR.0>
0

>  <SCORE.INTRA.REPUL>
0

>  <SCORE.INTRA.REPUL.0>
0

>  <SCORE.INTRA.VDW>
0.144128

>  <SCORE.INTRA.VDW.0>
-1.81788

>  <SCORE.INTRA.norm>
0.00600606

>  <SCORE.RESTR>
0.229191

>  <SCORE.RESTR.CAVITY>
0.229191

>  <SCORE.RESTR.norm>
0.00954964

>  <SCORE.SYSTEM>
-1.51367

>  <SCORE.SYSTEM.CONST>
0

>  <SCORE.SYSTEM.DIHEDRAL>
0.390854

>  <SCORE.SYSTEM.POLAR>
-0.502915

>  <SCORE.SYSTEM.VDW>
0.000818284

>  <SCORE.SYSTEM.norm>
-0.0630695

>  <SCORE.heavy>
24

>  <SCORE.norm>
-0.29522

>  <enum_code>
B

>  <enum_smi>
CC1(C)OB(c2ccc(B3OC(C)(C)C(C)(C)O3)cc2)OC1(C)C

>  <sha256>
8e0f53aaf85817d69423e2aef571b9b890c3014cf11a82a88b0595f3c9243ec1

>  <std_smi>
CC1(C)OB(c2ccc(B3OC(C)(C)C(C)(C)O3)cc2)OC1(C)C

>  <uuid>
f8faa166-43bd-4b33-a59c-89b640e7580b

$$$$
f8faa166-43bd-4b33-a59c-89b640e7580b
  rDOCK(R)          3D
libRbt.so/2013.1/901 2013/11/27
 24 26  0  0  0  0  0  0  0  0999 V2000
   -4.4117   32.8440    4.3950 C   0  0  0  0  0  0
   -3.8486   31.5231    3.9920 C   0  0  0  0  0  0
   -3.9367   31.2543    2.5203 C   0  0  0  0  0  0
   -4.4939   30.4429    4.6387 O   0  0  0  0  0  0
   -3.4942   29.3793    4.3938 B   0  0  0  0  0  0
   -3.8200   27.8864    4.1470 C   0  0  0  0  0  0
   -2.9271   26.9274    4.5800 C   0  0  0  0  0  0
   -3.2267   25.5789    4.3542 C   0  0  0  0  0  0
   -4.3817   25.2204    3.7170 C   0  0  0  0  0  0
   -4.7285   23.7365    3.4593 B   0  0  0  0  0  0
   -4.0555   22.6237    4.1169 O   0  0  0  0  0  0
   -4.4491   21.4643    3.4633 C   0  0  0  0  0  0
   -4.7171   20.4106    4.5189 C   0  0  0  0  0  0
   -3.3445   21.0494    2.5416 C   0  0  0  0  0  0
   -5.7021   21.8871    2.7519 C   0  0  0  0  0  0
   -6.8091   22.0626    3.7625 C   0  0  0  0  0  0
   -6.1212   20.9311    1.6708 C   0  0  0  0  0  0
   -5.3678   23.1440    2.2637 O   0  0  0  0  0  0
   -5.2628   26.1881    3.2906 C   0  0  0  0  0  0
   -4.9859   27.5417    3.5045 C   0  0  0  0  0  0
   -2.2047   29.9869    4.0756 O   0  0  0  0  0  0
   -2.4220   31.3107    4.4651 C   0  0  0  0  0  0
   -1.4563   32.2612    3.8125 C   0  0  0  0  0  0
   -2.3335   31.3559    5.9733 C   0  0  0  0  0  0
  1  2  1  0  0  0
  2  3  1  0  0  0
  2  4  1  0  0  0
  4  5  1  0  0  0
  5  6  1  0  0  0
  6  7  2  0  0  0
  7  8  1  0  0  0
  8  9  2  0  0  0
  9 10  1  0  0  0
 10 11  1  0  0  0
 11 12  1  0  0  0
 12 13  1  0  0  0
 12 14  1  0  0  0
 12 15  1  0  0  0
 15 16  1  0  0  0
 15 17  1  0  0  0
 15 18  1  0  0  0
  9 19  1  0  0  0
 19 20  2  0  0  0
  5 21  1  0  0  0
 21 22  1  0  0  0
 22 23  1  0  0  0
 22 24  1  0  0  0
 22  2  1  0  0  0
 20  6  1  0  0  0
 18 10  1  0  0  0
M  END
>  <CHROM.0>
-59.88758699,68.58698239

>  <CHROM.1>
-147.86329441,14.71697310,-4.10325251,26.54101252,3.75958086,1.35100936,-0.46083037
0.01676874

>  <Name>
f8faa166-43bd-4b33-a59c-89b640e7580b

>  <RI>
2.9898e+07

>  <Rbt.Current_Directory>
/data/work/jku/5V6S/work/40/8dba899c20c42488f2b1a17844994e

>  <Rbt.Executable>
rbdock ($Id: //depot/dev/client3/rdock/2013.1/src/exe/rbdock.cxx#4 $)

>  <Rbt.Library>
libRbt.so (2013.1, Build901 2013/11/27)

>  <Rbt.Parameter_File>
/rDock_2013.1_src/data/scripts/dock.prm

>  <Rbt.Receptor>
docking.prm

>  <SCORE>
-5.3644

>  <SCORE.INTER>
-4.5971

>  <SCORE.INTER.CONST>
1

>  <SCORE.INTER.POLAR>
0

>  <SCORE.INTER.REPUL>
0

>  <SCORE.INTER.ROT>
2

>  <SCORE.INTER.VDW>
-11.9971

>  <SCORE.INTER.norm>
-0.191546

>  <SCORE.INTRA>
0.148028

>  <SCORE.INTRA.DIHEDRAL>
2.47601e-05

>  <SCORE.INTRA.DIHEDRAL.0>
1.59997

>  <SCORE.INTRA.POLAR>
0

>  <SCORE.INTRA.POLAR.0>
0

>  <SCORE.INTRA.REPUL>
0

>  <SCORE.INTRA.REPUL.0>
0

>  <SCORE.INTRA.VDW>
0.148016

>  <SCORE.INTRA.VDW.0>
-1.81788

>  <SCORE.INTRA.norm>
0.00616784

>  <SCORE.RESTR>
0.597843

>  <SCORE.RESTR.CAVITY>
0.597843

>  <SCORE.RESTR.norm>
0.0249101

>  <SCORE.SYSTEM>
-1.51317

>  <SCORE.SYSTEM.CONST>
0

>  <SCORE.SYSTEM.DIHEDRAL>
0.365417

>  <SCORE.SYSTEM.POLAR>
-0.502664

>  <SCORE.SYSTEM.VDW>
0.0131755

>  <SCORE.SYSTEM.norm>
-0.0630489

>  <SCORE.heavy>
24

>  <SCORE.norm>
-0.223517

>  <enum_code>
B

>  <enum_smi>
CC1(C)OB(c2ccc(B3OC(C)(C)C(C)(C)O3)cc2)OC1(C)C

>  <sha256>
8e0f53aaf85817d69423e2aef571b9b890c3014cf11a82a88b0595f3c9243ec1

>  <std_smi>
CC1(C)OB(c2ccc(B3OC(C)(C)C(C)(C)O3)cc2)OC1(C)C

>  <uuid>
f8faa166-43bd-4b33-a59c-89b640e7580b

$$$$
f8faa166-43bd-4b33-a59c-89b640e7580b
  rDOCK(R)          3D
libRbt.so/2013.1/901 2013/11/27
 24 26  0  0  0  0  0  0  0  0999 V2000
   -1.8424   19.8488    4.4801 C   0  0  0  0  0  0
   -2.2594   21.1246    3.8299 C   0  0  0  0  0  0
   -1.2557   21.6595    2.8540 C   0  0  0  0  0  0
   -2.4972   22.1550    4.7696 O   0  0  0  0  0  0
   -3.2671   23.0892    3.9179 B   0  0  0  0  0  0
   -3.2116   24.6334    4.0086 C   0  0  0  0  0  0
   -4.3851   25.3515    3.9000 C   0  0  0  0  0  0
   -4.3291   26.7476    3.9828 C   0  0  0  0  0  0
   -3.1346   27.3860    4.1675 C   0  0  0  0  0  0
   -3.0543   28.9265    4.2611 B   0  0  0  0  0  0
   -4.2028   29.8072    4.0906 O   0  0  0  0  0  0
   -3.7137   31.1024    3.9923 C   0  0  0  0  0  0
   -4.6173   31.9982    4.8152 C   0  0  0  0  0  0
   -3.7191   31.4955    2.5475 C   0  0  0  0  0  0
   -2.3372   30.9885    4.5816 C   0  0  0  0  0  0
   -2.4523   30.8149    6.0763 C   0  0  0  0  0  0
   -1.4531   32.1584    4.2528 C   0  0  0  0  0  0
   -1.8736   29.7926    4.0483 O   0  0  0  0  0  0
   -1.9722   26.6565    4.2740 C   0  0  0  0  0  0
   -2.0023   25.2609    4.1946 C   0  0  0  0  0  0
   -3.8086   22.3675    2.7694 O   0  0  0  0  0  0
   -3.6221   21.0412    3.1665 C   0  0  0  0  0  0
   -3.6325   20.0918    2.0001 C   0  0  0  0  0  0
   -4.7017   20.7174    4.1734 C   0  0  0  0  0  0
  1  2  1  0  0  0
  2  3  1  0  0  0
  2  4  1  0  0  0
  4  5  1  0  0  0
  5  6  1  0  0  0
  6  7  2  0  0  0
  7  8  1  0  0  0
  8  9  2  0  0  0
  9 10  1  0  0  0
 10 11  1  0  0  0
 11 12  1  0  0  0
 12 13  1  0  0  0
 12 14  1  0  0  0
 12 15  1  0  0  0
 15 16  1  0  0  0
 15 17  1  0  0  0
 15 18  1  0  0  0
  9 19  1  0  0  0
 19 20  2  0  0  0
  5 21  1  0  0  0
 21 22  1  0  0  0
 22 23  1  0  0  0
 22 24  1  0  0  0
 22  2  1  0  0  0
 20  6  1  0  0  0
 18 10  1  0  0  0
M  END
>  <CHROM.0>
-59.88758699,69.16758075

>  <CHROM.1>
-138.66720419,-3.46298874,-3.05151018,26.05288466,3.95841112,-1.56345080
-0.30002055,0.08098808

>  <Name>
f8faa166-43bd-4b33-a59c-89b640e7580b

>  <RI>
2.9898e+07

>  <Rbt.Current_Directory>
/data/work/jku/5V6S/work/40/8dba899c20c42488f2b1a17844994e

>  <Rbt.Executable>
rbdock ($Id: //depot/dev/client3/rdock/2013.1/src/exe/rbdock.cxx#4 $)

>  <Rbt.Library>
libRbt.so (2013.1, Build901 2013/11/27)

>  <Rbt.Parameter_File>
/rDock_2013.1_src/data/scripts/dock.prm

>  <Rbt.Receptor>
docking.prm

>  <SCORE>
-6.01267

>  <SCORE.INTER>
-4.73214

>  <SCORE.INTER.CONST>
1

>  <SCORE.INTER.POLAR>
0

>  <SCORE.INTER.REPUL>
0

>  <SCORE.INTER.ROT>
2

>  <SCORE.INTER.VDW>
-12.1321

>  <SCORE.INTER.norm>
-0.197173

>  <SCORE.INTRA>
0.151037

>  <SCORE.INTRA.DIHEDRAL>
3.64418e-05

>  <SCORE.INTRA.DIHEDRAL.0>
1.59997

>  <SCORE.INTRA.POLAR>
0

>  <SCORE.INTRA.POLAR.0>
0

>  <SCORE.INTRA.REPUL>
0

>  <SCORE.INTRA.REPUL.0>
0

>  <SCORE.INTRA.VDW>
0.151019

>  <SCORE.INTRA.VDW.0>
-1.81788

>  <SCORE.INTRA.norm>
0.0062932

>  <SCORE.RESTR>
0.081797

>  <SCORE.RESTR.CAVITY>
0.081797

>  <SCORE.RESTR.norm>
0.00340821

>  <SCORE.SYSTEM>
-1.51336

>  <SCORE.SYSTEM.CONST>
0

>  <SCORE.SYSTEM.DIHEDRAL>
0.414472

>  <SCORE.SYSTEM.POLAR>
-0.503077

>  <SCORE.SYSTEM.VDW>
-0.0101293

>  <SCORE.SYSTEM.norm>
-0.0630565

>  <SCORE.heavy>
24

>  <SCORE.norm>
-0.250528

>  <enum_code>
B

>  <enum_smi>
CC1(C)OB(c2ccc(B3OC(C)(C)C(C)(C)O3)cc2)OC1(C)C

>  <sha256>
8e0f53aaf85817d69423e2aef571b9b890c3014cf11a82a88b0595f3c9243ec1

>  <std_smi>
CC1(C)OB(c2ccc(B3OC(C)(C)C(C)(C)O3)cc2)OC1(C)C

>  <uuid>
f8faa166-43bd-4b33-a59c-89b640e7580b

$$$$
f8faa166-43bd-4b33-a59c-89b640e7580b
  rDOCK(R)          3D
libRbt.so/2013.1/901 2013/11/27
 24 26  0  0  0  0  0  0  0  0999 V2000
   -1.2792   33.8185    3.6888 C   0  0  0  0  0  0
   -1.9906   32.5647    3.3063 C   0  0  0  0  0  0
   -3.2545   32.3302    4.0768 C   0  0  0  0  0  0
   -1.1882   31.4138    3.4877 O   0  0  0  0  0  0
   -1.9531   30.4506    2.6642 B   0  0  0  0  0  0
   -2.1135   28.9421    2.9713 C   0  0  0  0  0  0
   -0.9827   28.1588    3.0806 C   0  0  0  0  0  0
   -1.1335   26.7953    3.3586 C   0  0  0  0  0  0
   -2.3775   26.2515    3.5183 C   0  0  0  0  0  0
   -2.5626   24.7482    3.8254 B   0  0  0  0  0  0
   -1.5423   23.7398    3.5692 O   0  0  0  0  0  0
   -2.1440   22.4995    3.7300 C   0  0  0  0  0  0
   -1.1759   21.6142    4.4885 C   0  0  0  0  0  0
   -2.4448   21.9463    2.3716 C   0  0  0  0  0  0
   -3.3697   22.8214    4.5356 C   0  0  0  0  0  0
   -2.9592   23.1508    5.9500 C   0  0  0  0  0  0
   -4.3917   21.7196    4.5258 C   0  0  0  0  0  0
   -3.8282   23.9906    3.9418 O   0  0  0  0  0  0
   -3.4964   27.0453    3.4064 C   0  0  0  0  0  0
   -3.3716   28.4100    3.1293 C   0  0  0  0  0  0
   -2.8085   31.1794    1.7311 O   0  0  0  0  0  0
   -2.2743   32.4672    1.8183 C   0  0  0  0  0  0
   -3.2442   33.5177    1.3518 C   0  0  0  0  0  0
   -0.9938   32.4782    1.0155 C   0  0  0  0  0  0
  1  2  1  0  0  0
  2  3  1  0  0  0
  2  4  1  0  0  0
  4  5  1  0  0  0
  5  6  1  0  0  0
  6  7  2  0  0  0
  7  8  1  0  0  0
  8  9  2  0  0  0
  9 10  1  0  0  0
 10 11  1  0  0  0
 11 12  1  0  0  0
 12 13  1  0  0  0
 12 14  1  0  0  0
 12 15  1  0  0  0
 15 16  1  0  0  0
 15 17  1  0  0  0
 15 18  1  0  0  0
  9 19  1  0  0  0
 19 20  2  0  0  0
  5 21  1  0  0  0
 21 22  1  0  0  0
 22 23  1  0  0  0
 22 24  1  0  0  0
 22  2  1  0  0  0
 20  6  1  0  0  0
 18 10  1  0  0  0
M  END
>  <CHROM.0>
-59.88758699,179.59485350

>  <CHROM.1>
-58.09184856,-19.58287839,-2.37511409,27.58443892,3.31629684,1.50106671,0.48351635
-0.12995673

>  <Name>
f8faa166-43bd-4b33-a59c-89b640e7580b

>  <RI>
2.9898e+07

>  <Rbt.Current_Directory>
/data/work/jku/5V6S/work/40/8dba899c20c42488f2b1a17844994e

>  <Rbt.Executable>
rbdock ($Id: //depot/dev/client3/rdock/2013.1/src/exe/rbdock.cxx#4 $)

>  <Rbt.Library>
libRbt.so (2013.1, Build901 2013/11/27)

>  <Rbt.Parameter_File>
/rDock_2013.1_src/data/scripts/dock.prm

>  <Rbt.Receptor>
docking.prm

>  <SCORE>
20.0909

>  <SCORE.INTER>
20.2096

>  <SCORE.INTER.CONST>
1

>  <SCORE.INTER.POLAR>
0

>  <SCORE.INTER.REPUL>
0

>  <SCORE.INTER.ROT>
2

>  <SCORE.INTER.VDW>
12.8096

>  <SCORE.INTER.norm>
0.842065

>  <SCORE.INTRA>
0.152804

>  <SCORE.INTRA.DIHEDRAL>
7.94514e-05

>  <SCORE.INTRA.DIHEDRAL.0>
1.59997

>  <SCORE.INTRA.POLAR>
0

>  <SCORE.INTRA.POLAR.0>
0

>  <SCORE.INTRA.REPUL>
0

>  <SCORE.INTRA.REPUL.0>
0

>  <SCORE.INTRA.VDW>
0.152764

>  <SCORE.INTRA.VDW.0>
-1.81788

>  <SCORE.INTRA.norm>
0.00636683

>  <SCORE.RESTR>
0

>  <SCORE.RESTR.CAVITY>
0

>  <SCORE.RESTR.norm>
0

>  <SCORE.SYSTEM>
-0.271491

>  <SCORE.SYSTEM.CONST>
0

>  <SCORE.SYSTEM.DIHEDRAL>
0.00844127

>  <SCORE.SYSTEM.VDW>
-0.275712

>  <SCORE.SYSTEM.norm>
-0.0113121

>  <SCORE.heavy>
24

>  <SCORE.norm>
0.83712

>  <enum_code>
B

>  <enum_smi>
CC1(C)OB(c2ccc(B3OC(C)(C)C(C)(C)O3)cc2)OC1(C)C

>  <sha256>
8e0f53aaf85817d69423e2aef571b9b890c3014cf11a82a88b0595f3c9243ec1

>  <std_smi>
CC1(C)OB(c2ccc(B3OC(C)(C)C(C)(C)O3)cc2)OC1(C)C

>  <uuid>
f8faa166-43bd-4b33-a59c-89b640e7580b

$$$$
f8faa166-43bd-4b33-a59c-89b640e7580b
  rDOCK(R)          3D
libRbt.so/2013.1/901 2013/11/27
 24 26  0  0  0  0  0  0  0  0999 V2000
   -4.6256   20.4082    4.5362 C   0  0  0  0  0  0
   -4.6031   21.6841    3.7641 C   0  0  0  0  0  0
   -3.3910   21.8423    2.8972 C   0  0  0  0  0  0
   -4.6501   22.8219    4.6034 O   0  0  0  0  0  0
   -5.0365   23.8451    3.6060 B   0  0  0  0  0  0
   -4.5698   25.3208    3.6130 C   0  0  0  0  0  0
   -5.4362   26.2975    3.1658 C   0  0  0  0  0  0
   -5.0090   27.6304    3.1743 C   0  0  0  0  0  0
   -3.7577   27.9568    3.6172 C   0  0  0  0  0  0
   -3.2695   29.4231    3.6335 B   0  0  0  0  0  0
   -3.3557   30.3160    2.4850 O   0  0  0  0  0  0
   -2.6065   31.4445    2.7875 C   0  0  0  0  0  0
   -3.3891   32.6545    2.3187 C   0  0  0  0  0  0
   -1.2905   31.3347    2.0818 C   0  0  0  0  0  0
   -2.4959   31.3845    4.2839 C   0  0  0  0  0  0
   -3.8330   31.7296    4.8926 C   0  0  0  0  0  0
   -1.4193   32.2765    4.8348 C   0  0  0  0  0  0
   -2.2557   30.0367    4.5195 O   0  0  0  0  0  0
   -2.9044   26.9718    4.0603 C   0  0  0  0  0  0
   -3.3080   25.6332    4.0615 C   0  0  0  0  0  0
   -5.6266   23.1911    2.4410 O   0  0  0  0  0  0
   -5.8556   21.9048    2.9356 C   0  0  0  0  0  0
   -5.9988   20.8897    1.8351 C   0  0  0  0  0  0
   -7.0858   21.9722    3.8111 C   0  0  0  0  0  0
  1  2  1  0  0  0
  2  3  1  0  0  0
  2  4  1  0  0  0
  4  5  1  0  0  0
  5  6  1  0  0  0
  6  7  2  0  0  0
  7  8  1  0  0  0
  8  9  2  0  0  0
  9 10  1  0  0  0
 10 11  1  0  0  0
 11 12  1  0  0  0
 12 13  1  0  0  0
 12 14  1  0  0  0
 12 15  1  0  0  0
 15 16  1  0  0  0
 15 17  1  0  0  0
 15 18  1  0  0  0
  9 19  1  0  0  0
 19 20  2  0  0  0
  5 21  1  0  0  0
 21 22  1  0  0  0
 22 23  1  0  0  0
 22 24  1  0  0  0
 22  2  1  0  0  0
 20  6  1  0  0  0
 18 10  1  0  0  0
M  END
>  <CHROM.0>
-59.88758699,68.36332961

>  <CHROM.1>
-145.95021065,-50.65821487,-3.98243921,26.62330791,3.49237972,-1.91738106
-0.65246411,-0.19822762

>  <Name>
f8faa166-43bd-4b33-a59c-89b640e7580b

>  <RI>
2.9898e+07

>  <Rbt.Current_Directory>
/data/work/jku/5V6S/work/40/8dba899c20c42488f2b1a17844994e

>  <Rbt.Executable>
rbdock ($Id: //depot/dev/client3/rdock/2013.1/src/exe/rbdock.cxx#4 $)

>  <Rbt.Library>
libRbt.so (2013.1, Build901 2013/11/27)

>  <Rbt.Parameter_File>
/rDock_2013.1_src/data/scripts/dock.prm

>  <Rbt.Receptor>
docking.prm

>  <SCORE>
-1.54185

>  <SCORE.INTER>
-0.287485

>  <SCORE.INTER.CONST>
1

>  <SCORE.INTER.POLAR>
0

>  <SCORE.INTER.REPUL>
0

>  <SCORE.INTER.ROT>
2

>  <SCORE.INTER.VDW>
-7.68748

>  <SCORE.INTER.norm>
-0.0119785

>  <SCORE.INTRA>
0.103311

>  <SCORE.INTRA.DIHEDRAL>
5.61023e-06

>  <SCORE.INTRA.DIHEDRAL.0>
1.59997

>  <SCORE.INTRA.POLAR>
0

>  <SCORE.INTRA.POLAR.0>
0

>  <SCORE.INTRA.REPUL>
0

>  <SCORE.INTRA.REPUL.0>
0

>  <SCORE.INTRA.VDW>
0.103308

>  <SCORE.INTRA.VDW.0>
-1.81788

>  <SCORE.INTRA.norm>
0.00430464

>  <SCORE.RESTR>
0.154577

>  <SCORE.RESTR.CAVITY>
0.154577

>  <SCORE.RESTR.norm>
0.0064407

>  <SCORE.SYSTEM>
-1.51225

>  <SCORE.SYSTEM.CONST>
0

>  <SCORE.SYSTEM.DIHEDRAL>
0.347317

>  <SCORE.SYSTEM.POLAR>
-0.502432

>  <SCORE.SYSTEM.VDW>
0.0223604

>  <SCORE.SYSTEM.norm>
-0.0630104

>  <SCORE.heavy>
24

>  <SCORE.norm>
-0.0642436

>  <enum_code>
B

>  <enum_smi>
CC1(C)OB(c2ccc(B3OC(C)(C)C(C)(C)O3)cc2)OC1(C)C

>  <sha256>
8e0f53aaf85817d69423e2aef571b9b890c3014cf11a82a88b0595f3c9243ec1

>  <std_smi>
CC1(C)OB(c2ccc(B3OC(C)(C)C(C)(C)O3)cc2)OC1(C)C

>  <uuid>
f8faa166-43bd-4b33-a59c-89b640e7580b

$$$$
b37a12b8-97b3-439d-80e5-6891cb0bc52c
  rDOCK(R)          3D
libRbt.so/2013.1/901 2013/11/27
 17 18  0  0  0  0  0  0  0  0999 V2000
   -2.6352   23.4975    5.4217 C   0  0  0  0  0  0
   -2.5200   24.7818    5.7854 C   0  0  0  0  0  0
   -1.8787   25.8531    4.9549 C   0  0  0  0  0  0
   -2.8729   26.8406    4.6925 O   0  0  0  0  0  0
   -2.5235   27.8687    3.8618 C   0  0  0  0  0  0
   -1.3491   27.9676    3.1215 C   0  0  0  0  0  0
   -1.1236   29.0847    2.3069 C   0  0  0  0  0  0
   -2.0629   30.1261    2.2126 C   0  0  0  0  0  0
   -1.7588   31.3150    1.3090 C   0  0  0  0  0  0
   -2.9545   32.2600    1.1048 C   0  0  0  0  0  0
   -3.0550   33.3730    2.1444 C   0  0  0  0  0  0
   -1.7916   34.0924    2.2862 N   0  0  0  0  0  0
   -0.7137   33.2016    2.7090 C   0  0  0  0  0  0
   -0.4836   32.0798    1.7002 C   0  0  0  0  0  0
   -3.2377   30.0114    2.9626 C   0  0  0  0  0  0
   -3.4629   28.8956    3.7762 C   0  0  0  0  0  0
   -1.9032   34.8365    2.9748 H   0  0  0  0  0  0
  1  2  2  0  0  0
  2  3  1  0  0  0
  3  4  1  0  0  0
  4  5  1  0  0  0
  5  6  2  0  0  0
  6  7  1  0  0  0
  7  8  2  0  0  0
  8  9  1  0  0  0
  9 10  1  0  0  0
 10 11  1  0  0  0
 11 12  1  0  0  0
 12 13  1  0  0  0
 13 14  1  0  0  0
  8 15  1  0  0  0
 15 16  2  0  0  0
 16  5  1  0  0  0
 14  9  1  0  0  0
 12 17  1  0  0  0
M  END
>  <CHROM.0>
-59.88758699,69.34618904

>  <CHROM.1>
119.31018543,-175.36810359,8.11814038,170.07480036,-2.15176813,29.48395826
3.16042602,-1.64938176,0.24829524,-0.37093997

>  <Name>
b37a12b8-97b3-439d-80e5-6891cb0bc52c

>  <RI>
2.63345e+07

>  <Rbt.Current_Directory>
/data/work/jku/5V6S/work/40/8dba899c20c42488f2b1a17844994e

>  <Rbt.Executable>
rbdock ($Id: //depot/dev/client3/rdock/2013.1/src/exe/rbdock.cxx#4 $)

>  <Rbt.Library>
libRbt.so (2013.1, Build901 2013/11/27)

>  <Rbt.Parameter_File>
/rDock_2013.1_src/data/scripts/dock.prm

>  <Rbt.Receptor>
docking.prm

>  <SCORE>
-11.1377

>  <SCORE.INTER>
-10.6223

>  <SCORE.INTER.CONST>
1

>  <SCORE.INTER.POLAR>
-1.13765

>  <SCORE.INTER.REPUL>
0

>  <SCORE.INTER.ROT>
4

>  <SCORE.INTER.VDW>
-16.1543

>  <SCORE.INTER.norm>
-0.663894

>  <SCORE.INTRA>
0.997395

>  <SCORE.INTRA.DIHEDRAL>
0.163818

>  <SCORE.INTRA.DIHEDRAL.0>
0.757654

>  <SCORE.INTRA.POLAR>
0

>  <SCORE.INTRA.POLAR.0>
0

>  <SCORE.INTRA.REPUL>
0

>  <SCORE.INTRA.REPUL.0>
0

>  <SCORE.INTRA.VDW>
0.915485

>  <SCORE.INTRA.VDW.0>
0.147059

>  <SCORE.INTRA.norm>
0.0623372

>  <SCORE.RESTR>
0

>  <SCORE.RESTR.CAVITY>
0

>  <SCORE.RESTR.norm>
0

>  <SCORE.SYSTEM>
-1.51277

>  <SCORE.SYSTEM.CONST>
0

>  <SCORE.SYSTEM.DIHEDRAL>
0.430158

>  <SCORE.SYSTEM.POLAR>
-0.503149

>  <SCORE.SYSTEM.VDW>
-0.017144

>  <SCORE.SYSTEM.norm>
-0.0945483

>  <SCORE.heavy>
16

>  <SCORE.norm>
-0.696105

>  <enum_code>
B

>  <enum_smi>
C=CCOc1ccc(C2CCNCC2)cc1

>  <sha256>
3e748057807b74fc7531edb57dc57e14fcd39528db1c104741d394cde45d344f

>  <std_smi>
C=CCOc1ccc(C2CCNCC2)cc1

>  <uuid>
b37a12b8-97b3-439d-80e5-6891cb0bc52c

$$$$
b37a12b8-97b3-439d-80e5-6891cb0bc52c
  rDOCK(R)          3D
libRbt.so/2013.1/901 2013/11/27
 17 18  0  0  0  0  0  0  0  0999 V2000
   -0.4152   24.5629    6.5219 C   0  0  0  0  0  0
   -1.3088   25.0489    5.6500 C   0  0  0  0  0  0
   -1.4158   26.4890    5.2459 C   0  0  0  0  0  0
   -1.1509   26.5594    3.8469 O   0  0  0  0  0  0
   -1.2069   27.7955    3.2654 C   0  0  0  0  0  0
   -1.6343   28.9732    3.8715 C   0  0  0  0  0  0
   -1.6373   30.1741    3.1504 C   0  0  0  0  0  0
   -1.2147   30.2270    1.8108 C   0  0  0  0  0  0
   -1.2420   31.5642    1.0804 C   0  0  0  0  0  0
   -2.6234   32.2396    1.0757 C   0  0  0  0  0  0
   -2.8759   33.1525    2.2725 C   0  0  0  0  0  0
   -1.7870   34.1080    2.4597 N   0  0  0  0  0  0
   -0.5146   33.4294    2.6941 C   0  0  0  0  0  0
   -0.1316   32.5327    1.5202 C   0  0  0  0  0  0
   -0.7882   29.0351    1.2164 C   0  0  0  0  0  0
   -0.7852   27.8356    1.9369 C   0  0  0  0  0  0
   -1.9996   34.7093    3.2557 H   0  0  0  0  0  0
  1  2  2  0  0  0
  2  3  1  0  0  0
  3  4  1  0  0  0
  4  5  1  0  0  0
  5  6  2  0  0  0
  6  7  1  0  0  0
  7  8  2  0  0  0
  8  9  1  0  0  0
  9 10  1  0  0  0
 10 11  1  0  0  0
 11 12  1  0  0  0
 12 13  1  0  0  0
 13 14  1  0  0  0
  8 15  1  0  0  0
 15 16  2  0  0  0
 16  5  1  0  0  0
 14  9  1  0  0  0
 12 17  1  0  0  0
M  END
>  <CHROM.0>
-59.88758699,69.29770140

>  <CHROM.1>
117.52830728,179.53358783,-7.28310471,-56.16685286,-1.30097545,29.63785805
2.99795633,1.21549713,-1.36908253,2.36817721

>  <Name>
b37a12b8-97b3-439d-80e5-6891cb0bc52c

>  <RI>
2.63345e+07

>  <Rbt.Current_Directory>
/data/work/jku/5V6S/work/40/8dba899c20c42488f2b1a17844994e

>  <Rbt.Executable>
rbdock ($Id: //depot/dev/client3/rdock/2013.1/src/exe/rbdock.cxx#4 $)

>  <Rbt.Library>
libRbt.so (2013.1, Build901 2013/11/27)

>  <Rbt.Parameter_File>
/rDock_2013.1_src/data/scripts/dock.prm

>  <Rbt.Receptor>
docking.prm

>  <SCORE>
-13.5093

>  <SCORE.INTER>
-12.2521

>  <SCORE.INTER.CONST>
1

>  <SCORE.INTER.POLAR>
-0.639157

>  <SCORE.INTER.REPUL>
0

>  <SCORE.INTER.ROT>
4

>  <SCORE.INTER.VDW>
-19.479

>  <SCORE.INTER.norm>
-0.765757

>  <SCORE.INTRA>
0.25575

>  <SCORE.INTRA.DIHEDRAL>
0.0536546

>  <SCORE.INTRA.DIHEDRAL.0>
0.757654

>  <SCORE.INTRA.POLAR>
0

>  <SCORE.INTRA.POLAR.0>
0

>  <SCORE.INTRA.REPUL>
0

>  <SCORE.INTRA.REPUL.0>
0

>  <SCORE.INTRA.VDW>
0.228922

>  <SCORE.INTRA.VDW.0>
0.147059

>  <SCORE.INTRA.norm>
0.0159843

>  <SCORE.RESTR>
0

>  <SCORE.RESTR.CAVITY>
0

>  <SCORE.RESTR.norm>
0

>  <SCORE.SYSTEM>
-1.51296

>  <SCORE.SYSTEM.CONST>
0

>  <SCORE.SYSTEM.DIHEDRAL>
0.425872

>  <SCORE.SYSTEM.POLAR>
-0.503132

>  <SCORE.SYSTEM.VDW>
-0.0152468

>  <SCORE.SYSTEM.norm>
-0.09456

>  <SCORE.heavy>
16

>  <SCORE.norm>
-0.844333

>  <enum_code>
B

>  <enum_smi>
C=CCOc1ccc(C2CCNCC2)cc1

>  <sha256>
3e748057807b74fc7531edb57dc57e14fcd39528db1c104741d394cde45d344f

>  <std_smi>
C=CCOc1ccc(C2CCNCC2)cc1

>  <uuid>
b37a12b8-97b3-439d-80e5-6891cb0bc52c

$$$$
b37a12b8-97b3-439d-80e5-6891cb0bc52c
  rDOCK(R)          3D
libRbt.so/2013.1/901 2013/11/27
 17 18  0  0  0  0  0  0  0  0999 V2000
   -1.6791   24.3833    6.4558 C   0  0  0  0  0  0
   -0.8228   25.2987    5.9829 C   0  0  0  0  0  0
   -1.2124   26.6553    5.4763 C   0  0  0  0  0  0
   -0.9580   26.6750    4.0736 O   0  0  0  0  0  0
   -1.1418   27.8647    3.4256 C   0  0  0  0  0  0
   -1.5935   29.0520    3.9941 C   0  0  0  0  0  0
   -1.7338   30.2007    3.2047 C   0  0  0  0  0  0
   -1.4270   30.1907    1.8331 C   0  0  0  0  0  0
   -1.6009   31.4732    1.0284 C   0  0  0  0  0  0
   -2.9491   32.1743    1.2637 C   0  0  0  0  0  0
   -2.9395   33.1745    2.4166 C   0  0  0  0  0  0
   -1.8309   34.1188    2.3005 N   0  0  0  0  0  0
   -0.5410   33.4329    2.3121 C   0  0  0  0  0  0
   -0.4181   32.4477    1.1531 C   0  0  0  0  0  0
   -0.9742   28.9900    1.2772 C   0  0  0  0  0  0
   -0.8340   27.8427    2.0657 C   0  0  0  0  0  0
   -1.8682   34.7791    3.0770 H   0  0  0  0  0  0
  1  2  2  0  0  0
  2  3  1  0  0  0
  3  4  1  0  0  0
  4  5  1  0  0  0
  5  6  2  0  0  0
  6  7  1  0  0  0
  7  8  2  0  0  0
  8  9  1  0  0  0
  9 10  1  0  0  0
 10 11  1  0  0  0
 11 12  1  0  0  0
 12 13  1  0  0  0
 13 14  1  0  0  0
  8 15  1  0  0  0
 15 16  2  0  0  0
 16  5  1  0  0  0
 14  9  1  0  0  0
 12 17  1  0  0  0
M  END
>  <CHROM.0>
-59.88758699,68.92530444

>  <CHROM.1>
-112.53837205,-174.76191701,-2.12184794,-47.66688518,-1.42068506,29.65384402
3.03612471,1.36754044,-1.24796407,2.48864308

>  <Name>
b37a12b8-97b3-439d-80e5-6891cb0bc52c

>  <RI>
2.63345e+07

>  <Rbt.Current_Directory>
/data/work/jku/5V6S/work/40/8dba899c20c42488f2b1a17844994e

>  <Rbt.Executable>
rbdock ($Id: //depot/dev/client3/rdock/2013.1/src/exe/rbdock.cxx#4 $)

>  <Rbt.Library>
libRbt.so (2013.1, Build901 2013/11/27)

>  <Rbt.Parameter_File>
/rDock_2013.1_src/data/scripts/dock.prm

>  <Rbt.Receptor>
docking.prm

>  <SCORE>
-13.3552

>  <SCORE.INTER>
-12.3514

>  <SCORE.INTER.CONST>
1

>  <SCORE.INTER.POLAR>
-0.839203

>  <SCORE.INTER.REPUL>
0

>  <SCORE.INTER.ROT>
4

>  <SCORE.INTER.VDW>
-18.8981

>  <SCORE.INTER.norm>
-0.771962

>  <SCORE.INTRA>
0.509855

>  <SCORE.INTRA.DIHEDRAL>
0.216069

>  <SCORE.INTRA.DIHEDRAL.0>
0.757654

>  <SCORE.INTRA.POLAR>
0

>  <SCORE.INTRA.POLAR.0>
0

>  <SCORE.INTRA.REPUL>
0

>  <SCORE.INTRA.REPUL.0>
0

>  <SCORE.INTRA.VDW>
0.40182

>  <SCORE.INTRA.VDW.0>
0.147059

>  <SCORE.INTRA.norm>
0.0318659

>  <SCORE.RESTR>
0

>  <SCORE.RESTR.CAVITY>
0

>  <SCORE.RESTR.norm>
0

>  <SCORE.SYSTEM>
-1.51367

>  <SCORE.SYSTEM.CONST>
0

>  <SCORE.SYSTEM.DIHEDRAL>
0.39364

>  <SCORE.SYSTEM.POLAR>
-0.502938

>  <SCORE.SYSTEM.VDW>
-0.000498496

>  <SCORE.SYSTEM.norm>
-0.0946042

>  <SCORE.heavy>
16

>  <SCORE.norm>
-0.8347

>  <enum_code>
B

>  <enum_smi>
C=CCOc1ccc(C2CCNCC2)cc1

>  <sha256>
3e748057807b74fc7531edb57dc57e14fcd39528db1c104741d394cde45d344f

>  <std_smi>
C=CCOc1ccc(C2CCNCC2)cc1

>  <uuid>
b37a12b8-97b3-439d-80e5-6891cb0bc52c

$$$$
b37a12b8-97b3-439d-80e5-6891cb0bc52c
  rDOCK(R)          3D
libRbt.so/2013.1/901 2013/11/27
 17 18  0  0  0  0  0  0  0  0999 V2000
   -0.9676   24.8240    6.4555 C   0  0  0  0  0  0
   -0.2187   24.7234    5.3492 C   0  0  0  0  0  0
   -0.2268   25.7064    4.2168 C   0  0  0  0  0  0
   -1.0908   26.7776    4.5892 O   0  0  0  0  0  0
   -1.2055   27.8178    3.7094 C   0  0  0  0  0  0
   -0.8611   27.7989    2.3611 C   0  0  0  0  0  0
   -1.0347   28.9454    1.5751 C   0  0  0  0  0  0
   -1.5549   30.1341    2.1156 C   0  0  0  0  0  0
   -1.7193   31.3475    1.2084 C   0  0  0  0  0  0
   -3.0481   32.0951    1.4082 C   0  0  0  0  0  0
   -2.9952   33.1886    2.4717 C   0  0  0  0  0  0
   -1.8704   34.0954    2.2556 N   0  0  0  0  0  0
   -0.5946   33.3851    2.3016 C   0  0  0  0  0  0
   -0.5149   32.3032    1.2283 C   0  0  0  0  0  0
   -1.8962   30.1365    3.4717 C   0  0  0  0  0  0
   -1.7228   28.9913    4.2568 C   0  0  0  0  0  0
   -1.8788   34.8195    2.9739 H   0  0  0  0  0  0
  1  2  2  0  0  0
  2  3  1  0  0  0
  3  4  1  0  0  0
  4  5  1  0  0  0
  5  6  2  0  0  0
  6  7  1  0  0  0
  7  8  2  0  0  0
  8  9  1  0  0  0
  9 10  1  0  0  0
 10 11  1  0  0  0
 11 12  1  0  0  0
 12 13  1  0  0  0
 13 14  1  0  0  0
  8 15  1  0  0  0
 15 16  2  0  0  0
 16  5  1  0  0  0
 14  9  1  0  0  0
 12 17  1  0  0  0
M  END
>  <CHROM.0>
-59.88758699,68.73266171

>  <CHROM.1>
3.93335705,177.68805882,18.05245573,137.02062845,-1.34742942,29.55015782
3.07784640,1.21431338,-1.15326663,2.40541031

>  <Name>
b37a12b8-97b3-439d-80e5-6891cb0bc52c

>  <RI>
2.63345e+07

>  <Rbt.Current_Directory>
/data/work/jku/5V6S/work/40/8dba899c20c42488f2b1a17844994e

>  <Rbt.Executable>
rbdock ($Id: //depot/dev/client3/rdock/2013.1/src/exe/rbdock.cxx#4 $)

>  <Rbt.Library>
libRbt.so (2013.1, Build901 2013/11/27)

>  <Rbt.Parameter_File>
/rDock_2013.1_src/data/scripts/dock.prm

>  <Rbt.Receptor>
docking.prm

>  <SCORE>
-13.8575

>  <SCORE.INTER>
-13.5714

>  <SCORE.INTER.CONST>
1

>  <SCORE.INTER.POLAR>
-1.07114

>  <SCORE.INTER.REPUL>
0

>  <SCORE.INTER.ROT>
4

>  <SCORE.INTER.VDW>
-19.3295

>  <SCORE.INTER.norm>
-0.848214

>  <SCORE.INTRA>
1.2274

>  <SCORE.INTRA.DIHEDRAL>
0.479907

>  <SCORE.INTRA.DIHEDRAL.0>
0.757654

>  <SCORE.INTRA.POLAR>
0

>  <SCORE.INTRA.POLAR.0>
0

>  <SCORE.INTRA.REPUL>
0

>  <SCORE.INTRA.REPUL.0>
0

>  <SCORE.INTRA.VDW>
0.987449

>  <SCORE.INTRA.VDW.0>
0.147059

>  <SCORE.INTRA.norm>
0.0767127

>  <SCORE.RESTR>
0

>  <SCORE.RESTR.CAVITY>
0

>  <SCORE.RESTR.norm>
0

>  <SCORE.SYSTEM>
-1.51352

>  <SCORE.SYSTEM.CONST>
0

>  <SCORE.SYSTEM.DIHEDRAL>
0.377445

>  <SCORE.SYSTEM.POLAR>
-0.502794

>  <SCORE.SYSTEM.VDW>
0.0072552

>  <SCORE.SYSTEM.norm>
-0.094595

>  <SCORE.heavy>
16

>  <SCORE.norm>
-0.866097

>  <enum_code>
B

>  <enum_smi>
C=CCOc1ccc(C2CCNCC2)cc1

>  <sha256>
3e748057807b74fc7531edb57dc57e14fcd39528db1c104741d394cde45d344f

>  <std_smi>
C=CCOc1ccc(C2CCNCC2)cc1

>  <uuid>
b37a12b8-97b3-439d-80e5-6891cb0bc52c

$$$$
b37a12b8-97b3-439d-80e5-6891cb0bc52c
  rDOCK(R)          3D
libRbt.so/2013.1/901 2013/11/27
 17 18  0  0  0  0  0  0  0  0999 V2000
   -0.2597   24.1256    4.5920 C   0  0  0  0  0  0
   -0.3574   25.4612    4.5528 C   0  0  0  0  0  0
   -0.7147   26.3288    5.7224 C   0  0  0  0  0  0
   -1.9390   26.9872    5.4058 O   0  0  0  0  0  0
   -1.8999   27.9289    4.4154 C   0  0  0  0  0  0
   -1.8696   27.6841    3.0457 C   0  0  0  0  0  0
   -1.8318   28.7531    2.1412 C   0  0  0  0  0  0
   -1.8234   30.0878    2.5821 C   0  0  0  0  0  0
   -1.7812   31.2065    1.5481 C   0  0  0  0  0  0
   -3.0639   32.0530    1.4983 C   0  0  0  0  0  0
   -3.0609   33.2472    2.4488 C   0  0  0  0  0  0
   -1.8525   34.0537    2.2957 N   0  0  0  0  0  0
   -0.6499   33.2735    2.5774 C   0  0  0  0  0  0
   -0.5196   32.0814    1.6336 C   0  0  0  0  0  0
   -1.8542   30.3168    3.9613 C   0  0  0  0  0  0
   -1.8922   29.2489    4.8648 C   0  0  0  0  0  0
   -1.8952   34.8487    2.9333 H   0  0  0  0  0  0
  1  2  2  0  0  0
  2  3  1  0  0  0
  3  4  1  0  0  0
  4  5  1  0  0  0
  5  6  2  0  0  0
  6  7  1  0  0  0
  7  8  2  0  0  0
  8  9  1  0  0  0
  9 10  1  0  0  0
 10 11  1  0  0  0
 11 12  1  0  0  0
 12 13  1  0  0  0
 13 14  1  0  0  0
  8 15  1  0  0  0
 15 16  2  0  0  0
 16  5  1  0  0  0
 14  9  1  0  0  0
 12 17  1  0  0  0
M  END
>  <CHROM.0>
-59.88758699,67.91631035

>  <CHROM.1>
-117.26777595,-68.69033937,77.89619872,112.96425142,-1.58478037,29.58484928
3.34370600,-1.02953809,1.32494628,-0.90076930

>  <Name>
b37a12b8-97b3-439d-80e5-6891cb0bc52c

>  <RI>
2.63345e+07

>  <Rbt.Current_Directory>
/data/work/jku/5V6S/work/40/8dba899c20c42488f2b1a17844994e

>  <Rbt.Executable>
rbdock ($Id: //depot/dev/client3/rdock/2013.1/src/exe/rbdock.cxx#4 $)

>  <Rbt.Library>
libRbt.so (2013.1, Build901 2013/11/27)

>  <Rbt.Parameter_File>
/rDock_2013.1_src/data/scripts/dock.prm

>  <Rbt.Receptor>
docking.prm

>  <SCORE>
-12.6848

>  <SCORE.INTER>
-12.7414

>  <SCORE.INTER.CONST>
1

>  <SCORE.INTER.POLAR>
-1.26139

>  <SCORE.INTER.REPUL>
0

>  <SCORE.INTER.ROT>
4

>  <SCORE.INTER.VDW>
-17.8527

>  <SCORE.INTER.norm>
-0.796337

>  <SCORE.INTRA>
1.56559

>  <SCORE.INTRA.DIHEDRAL>
4.93168

>  <SCORE.INTRA.DIHEDRAL.0>
0.757654

>  <SCORE.INTRA.POLAR>
0

>  <SCORE.INTRA.POLAR.0>
0

>  <SCORE.INTRA.REPUL>
0

>  <SCORE.INTRA.REPUL.0>
0

>  <SCORE.INTRA.VDW>
-0.900255

>  <SCORE.INTRA.VDW.0>
0.147059

>  <SCORE.INTRA.norm>
0.0978491

>  <SCORE.RESTR>
0

>  <SCORE.RESTR.CAVITY>
0

>  <SCORE.RESTR.norm>
0

>  <SCORE.SYSTEM>
-1.50896

>  <SCORE.SYSTEM.CONST>
0

>  <SCORE.SYSTEM.DIHEDRAL>
0.312483

>  <SCORE.SYSTEM.POLAR>
-0.501844

>  <SCORE.SYSTEM.VDW>
0.0410702

>  <SCORE.SYSTEM.norm>
-0.09431

>  <SCORE.heavy>
16

>  <SCORE.norm>
-0.792798

>  <enum_code>
B

>  <enum_smi>
C=CCOc1ccc(C2CCNCC2)cc1

>  <sha256>
3e748057807b74fc7531edb57dc57e14fcd39528db1c104741d394cde45d344f

>  <std_smi>
C=CCOc1ccc(C2CCNCC2)cc1

>  <uuid>
b37a12b8-97b3-439d-80e5-6891cb0bc52c

$$$$
8fa5b73b-dafc-4f74-8764-06a530bef9f6
  rDOCK(R)          3D
libRbt.so/2013.1/901 2013/11/27
 18 19  0  0  0  0  0  0  0  0999 V2000
   -2.3152   24.2200    6.1117 C   0  0  0  0  0  0
   -2.8556   25.3983    5.7727 C   0  0  0  0  0  0
   -4.1163   25.5574    4.9738 C   0  0  0  0  0  0
   -3.8127   26.0956    3.6861 O   0  0  0  0  0  0
   -3.3619   27.3803    3.5874 C   0  0  0  0  0  0
   -1.9815   27.5197    3.7373 C   0  0  0  0  0  0
   -1.3727   28.7762    3.6697 C   0  0  0  0  0  0
   -2.1402   29.9277    3.4544 C   0  0  0  0  0  0
   -1.5209   31.3101    3.3692 C   0  0  0  0  0  0
   -2.2952   32.3537    4.2001 C   0  0  0  0  0  0
   -3.1205   33.2879    3.3345 C   0  0  0  0  0  0
   -2.2396   34.0015    2.3559 N   0  3  0  0  0  0
   -1.0589   33.2437    1.8314 C   0  0  0  0  0  0
   -1.3157   31.7510    1.9082 C   0  0  0  0  0  0
   -3.5283   29.7803    3.3112 C   0  0  0  0  0  0
   -4.1342   28.5191    3.3796 C   0  0  0  0  0  0
   -1.9008   34.8756    2.7826 H   0  0  0  0  0  0
   -2.8227   34.3046    1.5624 H   0  0  0  0  0  0
  1  2  2  0  0  0
  2  3  1  0  0  0
  3  4  1  0  0  0
  4  5  1  0  0  0
  5  6  2  0  0  0
  6  7  1  0  0  0
  7  8  2  0  0  0
  8  9  1  0  0  0
  9 10  1  0  0  0
 10 11  1  0  0  0
 11 12  1  0  0  0
 12 13  1  0  0  0
 13 14  1  0  0  0
  8 15  1  0  0  0
 15 16  2  0  0  0
 16  5  1  0  0  0
 14  9  1  0  0  0
 12 17  1  0  0  0
 12 18  1  0  0  0
M  END
>  <CHROM.0>
-59.88758699,68.87103699

>  <CHROM.1>
-111.22377058,-68.04615566,86.29805797,-134.20722276,-2.57930094,29.37286431
3.65119907,-1.72208109,-0.05414887,-0.30862640

>  <Name>
8fa5b73b-dafc-4f74-8764-06a530bef9f6

>  <RI>
3.68366e+07

>  <Rbt.Current_Directory>
/data/work/jku/5V6S/work/40/8dba899c20c42488f2b1a17844994e

>  <Rbt.Executable>
rbdock ($Id: //depot/dev/client3/rdock/2013.1/src/exe/rbdock.cxx#4 $)

>  <Rbt.Library>
libRbt.so (2013.1, Build901 2013/11/27)

>  <Rbt.Parameter_File>
/rDock_2013.1_src/data/scripts/dock.prm

>  <Rbt.Receptor>
docking.prm

>  <SCORE>
-13.4846

>  <SCORE.INTER>
-12.3917

>  <SCORE.INTER.CONST>
1

>  <SCORE.INTER.POLAR>
-1.85982

>  <SCORE.INTER.REPUL>
0

>  <SCORE.INTER.ROT>
4

>  <SCORE.INTER.VDW>
-15.4683

>  <SCORE.INTER.norm>
-0.774483

>  <SCORE.INTRA>
0.420833

>  <SCORE.INTRA.DIHEDRAL>
1.19427

>  <SCORE.INTRA.DIHEDRAL.0>
4.7825

>  <SCORE.INTRA.POLAR>
0

>  <SCORE.INTRA.POLAR.0>
0

>  <SCORE.INTRA.REPUL>
0

>  <SCORE.INTRA.REPUL.0>
0

>  <SCORE.INTRA.VDW>
-0.176304

>  <SCORE.INTRA.VDW.0>
-0.111634

>  <SCORE.INTRA.norm>
0.0263021

>  <SCORE.RESTR>
0

>  <SCORE.RESTR.CAVITY>
0

>  <SCORE.RESTR.norm>
0

>  <SCORE.SYSTEM>
-1.51366

>  <SCORE.SYSTEM.CONST>
0

>  <SCORE.SYSTEM.DIHEDRAL>
0.389045

>  <SCORE.SYSTEM.POLAR>
-0.5029

>  <SCORE.SYSTEM.VDW>
0.0016771

>  <SCORE.SYSTEM.norm>
-0.0946038

>  <SCORE.heavy>
16

>  <SCORE.norm>
-0.842785

>  <enum_code>
M

>  <enum_smi>
C=CCOc1ccc(C2CC[NH2+]CC2)cc1

>  <sha256>
3e748057807b74fc7531edb57dc57e14fcd39528db1c104741d394cde45d344f

>  <std_smi>
C=CCOc1ccc(C2CCNCC2)cc1

>  <uuid>
8fa5b73b-dafc-4f74-8764-06a530bef9f6

$$$$
8fa5b73b-dafc-4f74-8764-06a530bef9f6
  rDOCK(R)          3D
libRbt.so/2013.1/901 2013/11/27
 18 19  0  0  0  0  0  0  0  0999 V2000
   -3.4905   25.6890    5.3996 C   0  0  0  0  0  0
   -2.5959   25.1794    4.5422 C   0  0  0  0  0  0
   -1.1090   25.3416    4.6679 C   0  0  0  0  0  0
   -0.5854   25.9627    3.4931 O   0  0  0  0  0  0
   -0.8857   27.2695    3.2369 C   0  0  0  0  0  0
   -0.5448   27.6980    1.9533 C   0  0  0  0  0  0
   -0.7830   29.0138    1.5460 C   0  0  0  0  0  0
   -1.3668   29.9354    2.4242 C   0  0  0  0  0  0
   -1.6477   31.3714    2.0228 C   0  0  0  0  0  0
   -0.5395   32.3390    2.4861 C   0  0  0  0  0  0
   -0.9653   33.1826    3.6737 C   0  0  0  0  0  0
   -2.1914   33.9731    3.3351 N   0  3  0  0  0  0
   -3.1739   33.3315    2.4042 C   0  0  0  0  0  0
   -3.0510   31.8214    2.4692 C   0  0  0  0  0  0
   -1.7008   29.4990    3.7152 C   0  0  0  0  0  0
   -1.4603   28.1793    4.1191 C   0  0  0  0  0  0
   -1.9084   34.8788    2.9344 H   0  0  0  0  0  0
   -2.6707   34.2127    4.2150 H   0  0  0  0  0  0
  1  2  2  0  0  0
  2  3  1  0  0  0
  3  4  1  0  0  0
  4  5  1  0  0  0
  5  6  2  0  0  0
  6  7  1  0  0  0
  7  8  2  0  0  0
  8  9  1  0  0  0
  9 10  1  0  0  0
 10 11  1  0  0  0
 11 12  1  0  0  0
 12 13  1  0  0  0
 13 14  1  0  0  0
  8 15  1  0  0  0
 15 16  2  0  0  0
 16  5  1  0  0  0
 14  9  1  0  0  0
 12 17  1  0  0  0
 12 18  1  0  0  0
M  END
>  <CHROM.0>
-59.88758699,68.02537712

>  <CHROM.1>
-122.16745328,68.71854206,-168.25135688,-97.20572314,-1.64145713,29.41655508
3.23747236,1.52397159,-0.70114738,2.91471261

>  <Name>
8fa5b73b-dafc-4f74-8764-06a530bef9f6

>  <RI>
3.68366e+07

>  <Rbt.Current_Directory>
/data/work/jku/5V6S/work/40/8dba899c20c42488f2b1a17844994e

>  <Rbt.Executable>
rbdock ($Id: //depot/dev/client3/rdock/2013.1/src/exe/rbdock.cxx#4 $)

>  <Rbt.Library>
libRbt.so (2013.1, Build901 2013/11/27)

>  <Rbt.Parameter_File>
/rDock_2013.1_src/data/scripts/dock.prm

>  <Rbt.Receptor>
docking.prm

>  <SCORE>
-17.2625

>  <SCORE.INTER>
-14.4567

>  <SCORE.INTER.CONST>
1

>  <SCORE.INTER.POLAR>
-1.98736

>  <SCORE.INTER.REPUL>
0

>  <SCORE.INTER.ROT>
4

>  <SCORE.INTER.VDW>
-17.0997

>  <SCORE.INTER.norm>
-0.903544

>  <SCORE.INTRA>
-1.29583

>  <SCORE.INTRA.DIHEDRAL>
-3.46955

>  <SCORE.INTRA.DIHEDRAL.0>
4.7825

>  <SCORE.INTRA.POLAR>
0

>  <SCORE.INTRA.POLAR.0>
0

>  <SCORE.INTRA.REPUL>
0

>  <SCORE.INTRA.REPUL.0>
0

>  <SCORE.INTRA.VDW>
0.438943

>  <SCORE.INTRA.VDW.0>
-0.111634

>  <SCORE.INTRA.norm>
-0.0809896

>  <SCORE.RESTR>
0

>  <SCORE.RESTR.CAVITY>
0

>  <SCORE.RESTR.norm>
0

>  <SCORE.SYSTEM>
-1.50994

>  <SCORE.SYSTEM.CONST>
0

>  <SCORE.SYSTEM.DIHEDRAL>
0.320816

>  <SCORE.SYSTEM.POLAR>
-0.502003

>  <SCORE.SYSTEM.VDW>
0.0364617

>  <SCORE.SYSTEM.norm>
-0.0943713

>  <SCORE.heavy>
16

>  <SCORE.norm>
-1.0789

>  <enum_code>
M

>  <enum_smi>
C=CCOc1ccc(C2CC[NH2+]CC2)cc1

>  <sha256>
3e748057807b74fc7531edb57dc57e14fcd39528db1c104741d394cde45d344f

>  <std_smi>
C=CCOc1ccc(C2CCNCC2)cc1

>  <uuid>
8fa5b73b-dafc-4f74-8764-06a530bef9f6

$$$$
8fa5b73b-dafc-4f74-8764-06a530bef9f6
  rDOCK(R)          3D
libRbt.so/2013.1/901 2013/11/27
 18 19  0  0  0  0  0  0  0  0999 V2000
   -0.7412   23.1662    4.0375 C   0  0  0  0  0  0
   -0.0798   24.0391    4.8095 C   0  0  0  0  0  0
   -0.2697   25.5273    4.7658 C   0  0  0  0  0  0
   -0.5086   25.9490    3.4223 O   0  0  0  0  0  0
   -0.8240   27.2543    3.1769 C   0  0  0  0  0  0
   -0.5061   27.6919    1.8906 C   0  0  0  0  0  0
   -0.7617   29.0075    1.4933 C   0  0  0  0  0  0
   -1.3403   29.9198    2.3845 C   0  0  0  0  0  0
   -1.6396   31.3551    1.9944 C   0  0  0  0  0  0
   -0.5289   32.3290    2.4381 C   0  0  0  0  0  0
   -0.9357   33.1653    3.6374 C   0  0  0  0  0  0
   -2.1741   33.9483    3.3274 N   0  3  0  0  0  0
   -3.1713   33.3030    2.4147 C   0  0  0  0  0  0
   -3.0364   31.7935    2.4716 C   0  0  0  0  0  0
   -1.6512   29.4743    3.6783 C   0  0  0  0  0  0
   -1.3933   28.1548    4.0721 C   0  0  0  0  0  0
   -1.9059   34.8573    2.9241 H   0  0  0  0  0  0
   -2.6366   34.1813    4.2179 H   0  0  0  0  0  0
  1  2  2  0  0  0
  2  3  1  0  0  0
  3  4  1  0  0  0
  4  5  1  0  0  0
  5  6  2  0  0  0
  6  7  1  0  0  0
  7  8  2  0  0  0
  8  9  1  0  0  0
  9 10  1  0  0  0
 10 11  1  0  0  0
 11 12  1  0  0  0
 12 13  1  0  0  0
 13 14  1  0  0  0
  8 15  1  0  0  0
 15 16  2  0  0  0
 16  5  1  0  0  0
 14  9  1  0  0  0
 12 17  1  0  0  0
 12 18  1  0  0  0
M  END
>  <CHROM.0>
-59.88758699,70.49758284

>  <CHROM.1>
-36.11422879,174.30886920,154.94946291,-96.84711411,-1.23437638,29.18386316
3.14282444,0.48551605,-1.36013872,1.90945035

>  <Name>
8fa5b73b-dafc-4f74-8764-06a530bef9f6

>  <RI>
3.68366e+07

>  <Rbt.Current_Directory>
/data/work/jku/5V6S/work/40/8dba899c20c42488f2b1a17844994e

>  <Rbt.Executable>
rbdock ($Id: //depot/dev/client3/rdock/2013.1/src/exe/rbdock.cxx#4 $)

>  <Rbt.Library>
libRbt.so (2013.1, Build901 2013/11/27)

>  <Rbt.Parameter_File>
/rDock_2013.1_src/data/scripts/dock.prm

>  <Rbt.Receptor>
docking.prm

>  <SCORE>
-16.9237

>  <SCORE.INTER>
-15.532

>  <SCORE.INTER.CONST>
1

>  <SCORE.INTER.POLAR>
-1.99209

>  <SCORE.INTER.REPUL>
0

>  <SCORE.INTER.ROT>
4

>  <SCORE.INTER.VDW>
-18.1589

>  <SCORE.INTER.norm>
-0.970747

>  <SCORE.INTRA>
0.110213

>  <SCORE.INTRA.DIHEDRAL>
-1.11579

>  <SCORE.INTRA.DIHEDRAL.0>
4.7825

>  <SCORE.INTRA.POLAR>
0

>  <SCORE.INTRA.POLAR.0>
0

>  <SCORE.INTRA.REPUL>
0

>  <SCORE.INTRA.REPUL.0>
0

>  <SCORE.INTRA.VDW>
0.668106

>  <SCORE.INTRA.VDW.0>
-0.111634

>  <SCORE.INTRA.norm>
0.00688828

>  <SCORE.RESTR>
0

>  <SCORE.RESTR.CAVITY>
0

>  <SCORE.RESTR.norm>
0

>  <SCORE.SYSTEM>
-1.50194

>  <SCORE.SYSTEM.CONST>
0

>  <SCORE.SYSTEM.DIHEDRAL>
0.537889

>  <SCORE.SYSTEM.POLAR>
-0.503006

>  <SCORE.SYSTEM.VDW>
-0.0606607

>  <SCORE.SYSTEM.norm>
-0.0938709

>  <SCORE.heavy>
16

>  <SCORE.norm>
-1.05773

>  <enum_code>
M

>  <enum_smi>
C=CCOc1ccc(C2CC[NH2+]CC2)cc1

>  <sha256>
3e748057807b74fc7531edb57dc57e14fcd39528db1c104741d394cde45d344f

>  <std_smi>
C=CCOc1ccc(C2CCNCC2)cc1

>  <uuid>
8fa5b73b-dafc-4f74-8764-06a530bef9f6

$$$$
8fa5b73b-dafc-4f74-8764-06a530bef9f6
  rDOCK(R)          3D
libRbt.so/2013.1/901 2013/11/27
 18 19  0  0  0  0  0  0  0  0999 V2000
   -0.8338   23.5214    4.9051 C   0  0  0  0  0  0
    0.3121   24.1025    4.5247 C   0  0  0  0  0  0
    0.4056   25.4470    3.8642 C   0  0  0  0  0  0
   -0.8980   26.0139    3.7260 O   0  0  0  0  0  0
   -1.0280   27.2799    3.2321 C   0  0  0  0  0  0
   -1.6091   28.1875    4.1187 C   0  0  0  0  0  0
   -1.8160   29.5206    3.7526 C   0  0  0  0  0  0
   -1.4474   29.9738    2.4798 C   0  0  0  0  0  0
   -1.6489   31.4125    2.0422 C   0  0  0  0  0  0
   -0.5202   32.3409    2.5352 C   0  0  0  0  0  0
   -0.9582   33.2242    3.6889 C   0  0  0  0  0  0
   -2.1337   34.0596    3.2851 N   0  3  0  0  0  0
   -3.1035   33.4427    2.3245 C   0  0  0  0  0  0
   -3.0488   31.9302    2.4207 C   0  0  0  0  0  0
   -0.8698   29.0540    1.5915 C   0  0  0  0  0  0
   -0.6643   27.7189    1.9627 C   0  0  0  0  0  0
   -1.7953   34.9446    2.8811 H   0  0  0  0  0  0
   -2.6384   34.3361    4.1396 H   0  0  0  0  0  0
  1  2  2  0  0  0
  2  3  1  0  0  0
  3  4  1  0  0  0
  4  5  1  0  0  0
  5  6  2  0  0  0
  6  7  1  0  0  0
  7  8  2  0  0  0
  8  9  1  0  0  0
  9 10  1  0  0  0
 10 11  1  0  0  0
 11 12  1  0  0  0
 12 13  1  0  0  0
 13 14  1  0  0  0
  8 15  1  0  0  0
 15 16  2  0  0  0
 16  5  1  0  0  0
 14  9  1  0  0  0
 12 17  1  0  0  0
 12 18  1  0  0  0
M  END
>  <CHROM.0>
-59.88758699,67.99176612

>  <CHROM.1>
0.95224848,175.45451219,-118.13189690,82.14623970,-1.25258889,29.25749926
3.17161701,0.88413184,-1.25540951,2.31409125

>  <Name>
8fa5b73b-dafc-4f74-8764-06a530bef9f6

>  <RI>
3.68366e+07

>  <Rbt.Current_Directory>
/data/work/jku/5V6S/work/40/8dba899c20c42488f2b1a17844994e

>  <Rbt.Executable>
rbdock ($Id: //depot/dev/client3/rdock/2013.1/src/exe/rbdock.cxx#4 $)

>  <Rbt.Library>
libRbt.so (2013.1, Build901 2013/11/27)

>  <Rbt.Parameter_File>
/rDock_2013.1_src/data/scripts/dock.prm

>  <Rbt.Receptor>
docking.prm

>  <SCORE>
-16.6544

>  <SCORE.INTER>
-15.2178

>  <SCORE.INTER.CONST>
1

>  <SCORE.INTER.POLAR>
-1.72475

>  <SCORE.INTER.REPUL>
0

>  <SCORE.INTER.ROT>
4

>  <SCORE.INTER.VDW>
-18.7536

>  <SCORE.INTER.norm>
-0.951112

>  <SCORE.INTRA>
0.0730078

>  <SCORE.INTRA.DIHEDRAL>
-0.186737

>  <SCORE.INTRA.DIHEDRAL.0>
4.7825

>  <SCORE.INTRA.POLAR>
0

>  <SCORE.INTRA.POLAR.0>
0

>  <SCORE.INTRA.REPUL>
0

>  <SCORE.INTRA.REPUL.0>
0

>  <SCORE.INTRA.VDW>
0.166376

>  <SCORE.INTRA.VDW.0>
-0.111634

>  <SCORE.INTRA.norm>
0.00456299

>  <SCORE.RESTR>
0

>  <SCORE.RESTR.CAVITY>
0

>  <SCORE.RESTR.norm>
0

>  <SCORE.SYSTEM>
-1.50965

>  <SCORE.SYSTEM.CONST>
0

>  <SCORE.SYSTEM.DIHEDRAL>
0.318237

>  <SCORE.SYSTEM.POLAR>
-0.501955

>  <SCORE.SYSTEM.VDW>
0.0378789

>  <SCORE.SYSTEM.norm>
-0.0943532

>  <SCORE.heavy>
16

>  <SCORE.norm>
-1.0409

>  <enum_code>
M

>  <enum_smi>
C=CCOc1ccc(C2CC[NH2+]CC2)cc1

>  <sha256>
3e748057807b74fc7531edb57dc57e14fcd39528db1c104741d394cde45d344f

>  <std_smi>
C=CCOc1ccc(C2CCNCC2)cc1

>  <uuid>
8fa5b73b-dafc-4f74-8764-06a530bef9f6

$$$$
8fa5b73b-dafc-4f74-8764-06a530bef9f6
  rDOCK(R)          3D
libRbt.so/2013.1/901 2013/11/27
 18 19  0  0  0  0  0  0  0  0999 V2000
    0.1679   22.7700    3.8918 C   0  0  0  0  0  0
    0.1598   23.9424    4.5405 C   0  0  0  0  0  0
    0.2379   25.2844    3.8729 C   0  0  0  0  0  0
   -1.0028   25.9760    4.0222 O   0  0  0  0  0  0
   -1.1397   27.2264    3.4917 C   0  0  0  0  0  0
   -1.8543   28.1174    4.2935 C   0  0  0  0  0  0
   -2.0844   29.4329    3.8806 C   0  0  0  0  0  0
   -1.6046   29.8845    2.6448 C   0  0  0  0  0  0
   -1.8268   31.3047    2.1592 C   0  0  0  0  0  0
   -0.6621   32.2436    2.5345 C   0  0  0  0  0  0
   -1.0163   33.1797    3.6753 C   0  0  0  0  0  0
   -2.2115   34.0071    3.3149 N   0  3  0  0  0  0
   -3.2473   33.3577    2.4493 C   0  0  0  0  0  0
   -3.1950   31.8504    2.6076 C   0  0  0  0  0  0
   -0.8927   28.9810    1.8412 C   0  0  0  0  0  0
   -0.6644   27.6635    2.2591 C   0  0  0  0  0  0
   -1.8959   34.8708    2.8508 H   0  0  0  0  0  0
   -2.6560   34.3246    4.1883 H   0  0  0  0  0  0
  1  2  2  0  0  0
  2  3  1  0  0  0
  3  4  1  0  0  0
  4  5  1  0  0  0
  5  6  2  0  0  0
  6  7  1  0  0  0
  7  8  2  0  0  0
  8  9  1  0  0  0
  9 10  1  0  0  0
 10 11  1  0  0  0
 11 12  1  0  0  0
 12 13  1  0  0  0
 13 14  1  0  0  0
  8 15  1  0  0  0
 15 16  2  0  0  0
 16  5  1  0  0  0
 14  9  1  0  0  0
 12 17  1  0  0  0
 12 18  1  0  0  0
M  END
>  <CHROM.0>
-59.88758699,69.42347619

>  <CHROM.1>
111.68179791,179.55963940,-140.39550371,92.68384450,-1.31017968,29.13164707
3.23177170,-1.27476526,0.68287672,-0.31964373

>  <Name>
8fa5b73b-dafc-4f74-8764-06a530bef9f6

>  <RI>
3.68366e+07

>  <Rbt.Current_Directory>
/data/work/jku/5V6S/work/40/8dba899c20c42488f2b1a17844994e

>  <Rbt.Executable>
rbdock ($Id: //depot/dev/client3/rdock/2013.1/src/exe/rbdock.cxx#4 $)

>  <Rbt.Library>
libRbt.so (2013.1, Build901 2013/11/27)

>  <Rbt.Parameter_File>
/rDock_2013.1_src/data/scripts/dock.prm

>  <Rbt.Receptor>
docking.prm

>  <SCORE>
-17.6178

>  <SCORE.INTER>
-15.2093

>  <SCORE.INTER.CONST>
1

>  <SCORE.INTER.POLAR>
-1.68136

>  <SCORE.INTER.REPUL>
0

>  <SCORE.INTER.ROT>
4

>  <SCORE.INTER.VDW>
-18.8926

>  <SCORE.INTER.norm>
-0.950578

>  <SCORE.INTRA>
-0.896171

>  <SCORE.INTRA.DIHEDRAL>
-1.9243

>  <SCORE.INTRA.DIHEDRAL.0>
4.7825

>  <SCORE.INTRA.POLAR>
0

>  <SCORE.INTRA.POLAR.0>
0

>  <SCORE.INTRA.REPUL>
0

>  <SCORE.INTRA.REPUL.0>
0

>  <SCORE.INTRA.VDW>
0.0659797

>  <SCORE.INTRA.VDW.0>
-0.111634

>  <SCORE.INTRA.norm>
-0.0560107

>  <SCORE.RESTR>
0

>  <SCORE.RESTR.CAVITY>
0

>  <SCORE.RESTR.norm>
0

>  <SCORE.SYSTEM>
-1.51243

>  <SCORE.SYSTEM.CONST>
0

>  <SCORE.SYSTEM.DIHEDRAL>
0.437032

>  <SCORE.SYSTEM.POLAR>
-0.503172

>  <SCORE.SYSTEM.VDW>
-0.020157

>  <SCORE.SYSTEM.norm>
-0.0945267

>  <SCORE.heavy>
16

>  <SCORE.norm>
-1.10112

>  <enum_code>
M

>  <enum_smi>
C=CCOc1ccc(C2CC[NH2+]CC2)cc1

>  <sha256>
3e748057807b74fc7531edb57dc57e14fcd39528db1c104741d394cde45d344f

>  <std_smi>
C=CCOc1ccc(C2CCNCC2)cc1

>  <uuid>
8fa5b73b-dafc-4f74-8764-06a530bef9f6

$$$$
efff4c0c-d806-4178-8ad4-a3398fe6f5ef
  rDOCK(R)          3D
libRbt.so/2013.1/901 2013/11/27
 18 19  0  0  0  0  0  0  0  0999 V2000
    2.6967   31.6586   -0.2622 O   0  0  0  0  0  0
    1.2930   32.0181   -0.4786 B   0  0  0  0  0  0
    1.0557   33.3585   -1.0565 O   0  0  0  0  0  0
    0.2822   31.5599    0.6213 C   0  0  0  0  0  0
   -0.2194   30.2856    0.6972 C   0  0  0  0  0  0
   -1.1183   29.9709    1.7169 C   0  0  0  0  0  0
   -1.5107   30.9066    2.6435 C   0  0  0  0  0  0
   -2.4548   30.6132    3.7311 C   0  0  0  0  0  0
   -1.9950   30.5367    5.0409 C   0  0  0  0  0  0
   -2.8239   30.2660    6.1063 C   0  0  0  0  0  0
   -4.1752   30.0555    5.9079 C   0  0  0  0  0  0
   -5.0168   29.7871    6.9350 F   0  0  0  0  0  0
   -4.6469   30.1278    4.6153 C   0  0  0  0  0  0
   -3.7989   30.4037    3.5346 C   0  0  0  0  0  0
   -0.9865   32.1393    2.5197 N   0  0  0  0  0  0
   -0.1181   32.4852    1.5533 C   0  0  0  0  0  0
    2.8508   30.6895   -0.2616 H   0  0  0  0  0  0
    1.5268   33.4676   -1.9190 H   0  0  0  0  0  0
  1  2  1  0  0  0
  2  3  1  0  0  0
  2  4  1  0  0  0
  4  5  2  0  0  0
  5  6  1  0  0  0
  6  7  2  0  0  0
  7  8  1  0  0  0
  8  9  2  0  0  0
  9 10  1  0  0  0
 10 11  2  0  0  0
 11 12  1  0  0  0
 11 13  1  0  0  0
 13 14  2  0  0  0
  7 15  1  0  0  0
 15 16  2  0  0  0
 16  4  1  0  0  0
 14  8  1  0  0  0
  1 17  1  0  0  0
  3 18  1  0  0  0
M  END
>  <CHROM.0>
-59.88758699,69.80631532

>  <CHROM.1>
-154.86763485,56.86143861,-80.09125860,108.64382848,-1.45955062,31.02726030
2.74848636,-0.86674318,0.00971821,1.88967263

>  <Name>
efff4c0c-d806-4178-8ad4-a3398fe6f5ef

>  <RI>
2.80589e+07

>  <Rbt.Current_Directory>
/data/work/jku/5V6S/work/40/8dba899c20c42488f2b1a17844994e

>  <Rbt.Executable>
rbdock ($Id: //depot/dev/client3/rdock/2013.1/src/exe/rbdock.cxx#4 $)

>  <Rbt.Library>
libRbt.so (2013.1, Build901 2013/11/27)

>  <Rbt.Parameter_File>
/rDock_2013.1_src/data/scripts/dock.prm

>  <Rbt.Receptor>
docking.prm

>  <SCORE>
-11.8503

>  <SCORE.INTER>
-11.7496

>  <SCORE.INTER.CONST>
1

>  <SCORE.INTER.POLAR>
-1

>  <SCORE.INTER.REPUL>
0.0204964

>  <SCORE.INTER.ROT>
2

>  <SCORE.INTER.VDW>
-15.8521

>  <SCORE.INTER.norm>
-0.734349

>  <SCORE.INTRA>
1.40915

>  <SCORE.INTRA.DIHEDRAL>
4.32326

>  <SCORE.INTRA.DIHEDRAL.0>
1.02768

>  <SCORE.INTRA.POLAR>
0

>  <SCORE.INTRA.POLAR.0>
0

>  <SCORE.INTRA.REPUL>
0

>  <SCORE.INTRA.REPUL.0>
0

>  <SCORE.INTRA.VDW>
-0.752484

>  <SCORE.INTRA.VDW.0>
-0.595313

>  <SCORE.INTRA.norm>
0.0880717

>  <SCORE.RESTR>
0

>  <SCORE.RESTR.CAVITY>
0

>  <SCORE.RESTR.norm>
0

>  <SCORE.SYSTEM>
-1.5099

>  <SCORE.SYSTEM.CONST>
0

>  <SCORE.SYSTEM.DIHEDRAL>
0.471846

>  <SCORE.SYSTEM.POLAR>
-0.503218

>  <SCORE.SYSTEM.VDW>
-0.0348851

>  <SCORE.SYSTEM.norm>
-0.0943689

>  <SCORE.heavy>
16

>  <SCORE.norm>
-0.740646

>  <enum_code>
B

>  <enum_smi>
OB(O)c1ccc(-c2ccc(F)cc2)nc1

>  <sha256>
c72bb105d6b035de27114119af225dba57f2c17a45c3569f6b7c38d2c0b87170

>  <std_smi>
OB(O)c1ccc(-c2ccc(F)cc2)nc1

>  <uuid>
efff4c0c-d806-4178-8ad4-a3398fe6f5ef

$$$$
efff4c0c-d806-4178-8ad4-a3398fe6f5ef
  rDOCK(R)          3D
libRbt.so/2013.1/901 2013/11/27
 18 19  0  0  0  0  0  0  0  0999 V2000
   -0.7745   33.3579    1.3966 O   0  0  0  0  0  0
   -1.5006   33.0231    2.6243 B   0  0  0  0  0  0
   -1.3985   34.0113    3.7199 O   0  0  0  0  0  0
   -1.4794   31.5213    3.0551 C   0  0  0  0  0  0
   -1.1422   30.5001    2.2039 C   0  0  0  0  0  0
   -1.1523   29.1890    2.6813 C   0  0  0  0  0  0
   -1.4915   28.8997    3.9810 C   0  0  0  0  0  0
   -1.5137   27.5325    4.5201 C   0  0  0  0  0  0
   -2.2133   27.2648    5.6913 C   0  0  0  0  0  0
   -2.2756   26.0085    6.2508 C   0  0  0  0  0  0
   -1.6295   24.9423    5.6545 C   0  0  0  0  0  0
   -1.6715   23.6944    6.1799 F   0  0  0  0  0  0
   -0.9314   25.1909    4.4928 C   0  0  0  0  0  0
   -0.8714   26.4716    3.9276 C   0  0  0  0  0  0
   -1.8131   29.9409    4.7698 N   0  0  0  0  0  0
   -1.8164   31.2186    4.3511 C   0  0  0  0  0  0
    0.1959   33.4205    1.5276 H   0  0  0  0  0  0
   -1.6130   34.9233    3.4037 H   0  0  0  0  0  0
  1  2  1  0  0  0
  2  3  1  0  0  0
  2  4  1  0  0  0
  4  5  2  0  0  0
  5  6  1  0  0  0
  6  7  2  0  0  0
  7  8  1  0  0  0
  8  9  2  0  0  0
  9 10  1  0  0  0
 10 11  2  0  0  0
 11 12  1  0  0  0
 11 13  1  0  0  0
 13 14  2  0  0  0
  7 15  1  0  0  0
 15 16  2  0  0  0
 16  4  1  0  0  0
 14  8  1  0  0  0
  1 17  1  0  0  0
  3 18  1  0  0  0
M  END
>  <CHROM.0>
-59.88758699,69.01890758

>  <CHROM.1>
62.68111840,50.89092713,-17.48415594,-161.74664264,-1.46739558,28.93434434
4.10806543,-1.45736424,-1.17333023,2.89468257

>  <Name>
efff4c0c-d806-4178-8ad4-a3398fe6f5ef

>  <RI>
2.80589e+07

>  <Rbt.Current_Directory>
/data/work/jku/5V6S/work/40/8dba899c20c42488f2b1a17844994e

>  <Rbt.Executable>
rbdock ($Id: //depot/dev/client3/rdock/2013.1/src/exe/rbdock.cxx#4 $)

>  <Rbt.Library>
libRbt.so (2013.1, Build901 2013/11/27)

>  <Rbt.Parameter_File>
/rDock_2013.1_src/data/scripts/dock.prm

>  <Rbt.Receptor>
docking.prm

>  <SCORE>
-13.8086

>  <SCORE.INTER>
-12.545

>  <SCORE.INTER.CONST>
1

>  <SCORE.INTER.POLAR>
-1.25309

>  <SCORE.INTER.REPUL>
0

>  <SCORE.INTER.ROT>
2

>  <SCORE.INTER.VDW>
-15.6845

>  <SCORE.INTER.norm>
-0.784065

>  <SCORE.INTRA>
0.250021

>  <SCORE.INTRA.DIHEDRAL>
0.394745

>  <SCORE.INTRA.DIHEDRAL.0>
1.02768

>  <SCORE.INTRA.POLAR>
0

>  <SCORE.INTRA.POLAR.0>
0

>  <SCORE.INTRA.REPUL>
0

>  <SCORE.INTRA.REPUL.0>
0

>  <SCORE.INTRA.VDW>
0.0526489

>  <SCORE.INTRA.VDW.0>
-0.595313

>  <SCORE.INTRA.norm>
0.0156263

>  <SCORE.RESTR>
0

>  <SCORE.RESTR.CAVITY>
0

>  <SCORE.RESTR.norm>
0

>  <SCORE.SYSTEM>
-1.51361

>  <SCORE.SYSTEM.CONST>
0

>  <SCORE.SYSTEM.DIHEDRAL>
0.401627

>  <SCORE.SYSTEM.POLAR>
-0.502997

>  <SCORE.SYSTEM.VDW>
-0.00423523

>  <SCORE.SYSTEM.norm>
-0.0946008

>  <SCORE.heavy>
16

>  <SCORE.norm>
-0.86304

>  <enum_code>
B

>  <enum_smi>
OB(O)c1ccc(-c2ccc(F)cc2)nc1

>  <sha256>
c72bb105d6b035de27114119af225dba57f2c17a45c3569f6b7c38d2c0b87170

>  <std_smi>
OB(O)c1ccc(-c2ccc(F)cc2)nc1

>  <uuid>
efff4c0c-d806-4178-8ad4-a3398fe6f5ef

$$$$
efff4c0c-d806-4178-8ad4-a3398fe6f5ef
  rDOCK(R)          3D
libRbt.so/2013.1/901 2013/11/27
 18 19  0  0  0  0  0  0  0  0999 V2000
   -0.0790   24.0287    6.8722 O   0  0  0  0  0  0
   -1.4122   24.5798    6.6165 B   0  0  0  0  0  0
   -2.4345   23.6072    6.1737 O   0  0  0  0  0  0
   -1.4629   25.9832    5.9314 C   0  0  0  0  0  0
   -1.7884   27.1350    6.6010 C   0  0  0  0  0  0
   -1.8068   28.3427    5.9024 C   0  0  0  0  0  0
   -1.5071   28.4030    4.5629 C   0  0  0  0  0  0
   -1.5159   29.6553    3.7933 C   0  0  0  0  0  0
   -1.1980   29.6347    2.4400 C   0  0  0  0  0  0
   -1.1869   30.7694    1.6605 C   0  0  0  0  0  0
   -1.4987   31.9995    2.2078 C   0  0  0  0  0  0
   -1.4967   33.1342    1.4678 F   0  0  0  0  0  0
   -1.8160   32.0370    3.5481 C   0  0  0  0  0  0
   -1.8259   30.8790    4.3369 C   0  0  0  0  0  0
   -1.1954   27.2423    3.9585 N   0  0  0  0  0  0
   -1.1656   26.0573    4.5931 C   0  0  0  0  0  0
    0.5947   24.7184    7.0543 H   0  0  0  0  0  0
   -3.3477   23.9721    6.2770 H   0  0  0  0  0  0
  1  2  1  0  0  0
  2  3  1  0  0  0
  2  4  1  0  0  0
  4  5  2  0  0  0
  5  6  1  0  0  0
  6  7  2  0  0  0
  7  8  1  0  0  0
  8  9  2  0  0  0
  9 10  1  0  0  0
 10 11  2  0  0  0
 11 12  1  0  0  0
 11 13  1  0  0  0
 13 14  2  0  0  0
  7 15  1  0  0  0
 15 16  2  0  0  0
 16  4  1  0  0  0
 14  8  1  0  0  0
  1 17  1  0  0  0
  3 18  1  0  0  0
M  END
>  <CHROM.0>
-59.88758699,68.33480506

>  <CHROM.1>
172.82269144,163.11824646,-105.74485522,179.86327435,-1.45505180,28.33445966
4.39510667,-1.48980258,1.33244875,-0.58642158

>  <Name>
efff4c0c-d806-4178-8ad4-a3398fe6f5ef

>  <RI>
2.80589e+07

>  <Rbt.Current_Directory>
/data/work/jku/5V6S/work/40/8dba899c20c42488f2b1a17844994e

>  <Rbt.Executable>
rbdock ($Id: //depot/dev/client3/rdock/2013.1/src/exe/rbdock.cxx#4 $)

>  <Rbt.Library>
libRbt.so (2013.1, Build901 2013/11/27)

>  <Rbt.Parameter_File>
/rDock_2013.1_src/data/scripts/dock.prm

>  <Rbt.Receptor>
docking.prm

>  <SCORE>
-10.3409

>  <SCORE.INTER>
-8.64399

>  <SCORE.INTER.CONST>
1

>  <SCORE.INTER.POLAR>
-0.112733

>  <SCORE.INTER.REPUL>
0

>  <SCORE.INTER.ROT>
2

>  <SCORE.INTER.VDW>
-15.6607

>  <SCORE.INTER.norm>
-0.540249

>  <SCORE.INTRA>
-0.18486

>  <SCORE.INTRA.DIHEDRAL>
0.0486801

>  <SCORE.INTRA.DIHEDRAL.0>
1.02768

>  <SCORE.INTRA.POLAR>
0

>  <SCORE.INTRA.POLAR.0>
0

>  <SCORE.INTRA.REPUL>
0

>  <SCORE.INTRA.REPUL.0>
0

>  <SCORE.INTRA.VDW>
-0.209201

>  <SCORE.INTRA.VDW.0>
-0.595313

>  <SCORE.INTRA.norm>
-0.0115538

>  <SCORE.RESTR>
0

>  <SCORE.RESTR.CAVITY>
0

>  <SCORE.RESTR.norm>
0

>  <SCORE.SYSTEM>
-1.5121

>  <SCORE.SYSTEM.CONST>
0

>  <SCORE.SYSTEM.DIHEDRAL>
0.345041

>  <SCORE.SYSTEM.POLAR>
-0.502399

>  <SCORE.SYSTEM.VDW>
0.0235403

>  <SCORE.SYSTEM.norm>
-0.0945061

>  <SCORE.heavy>
16

>  <SCORE.norm>
-0.646309

>  <enum_code>
B

>  <enum_smi>
OB(O)c1ccc(-c2ccc(F)cc2)nc1

>  <sha256>
c72bb105d6b035de27114119af225dba57f2c17a45c3569f6b7c38d2c0b87170

>  <std_smi>
OB(O)c1ccc(-c2ccc(F)cc2)nc1

>  <uuid>
efff4c0c-d806-4178-8ad4-a3398fe6f5ef

$$$$
efff4c0c-d806-4178-8ad4-a3398fe6f5ef
  rDOCK(R)          3D
libRbt.so/2013.1/901 2013/11/27
 18 19  0  0  0  0  0  0  0  0999 V2000
   -2.6881   23.7281    6.6288 O   0  0  0  0  0  0
   -1.3941   24.2914    6.2355 B   0  0  0  0  0  0
   -0.2753   24.0428    7.1702 O   0  0  0  0  0  0
   -1.4264   25.7045    5.5695 C   0  0  0  0  0  0
   -1.1082   25.9224    4.2533 C   0  0  0  0  0  0
   -1.1665   27.2218    3.7483 C   0  0  0  0  0  0
   -1.5345   28.2842    4.5382 C   0  0  0  0  0  0
   -1.6076   29.6661    4.0428 C   0  0  0  0  0  0
   -2.0004   30.6863    4.9017 C   0  0  0  0  0  0
   -2.0903   32.0012    4.5040 C   0  0  0  0  0  0
   -1.7861   32.3636    3.2056 C   0  0  0  0  0  0
   -1.8647   33.6485    2.7833 F   0  0  0  0  0  0
   -1.3950   31.3642    2.3415 C   0  0  0  0  0  0
   -1.3052   30.0274    2.7516 C   0  0  0  0  0  0
   -1.8354   28.0108    5.8205 N   0  0  0  0  0  0
   -1.7924   26.7747    6.3478 C   0  0  0  0  0  0
   -3.3583   23.7654    5.9131 H   0  0  0  0  0  0
    0.5941   24.2778    6.7620 H   0  0  0  0  0  0
  1  2  1  0  0  0
  2  3  1  0  0  0
  2  4  1  0  0  0
  4  5  2  0  0  0
  5  6  1  0  0  0
  6  7  2  0  0  0
  7  8  1  0  0  0
  8  9  2  0  0  0
  9 10  1  0  0  0
 10 11  2  0  0  0
 11 12  1  0  0  0
 11 13  1  0  0  0
 13 14  2  0  0  0
  7 15  1  0  0  0
 15 16  2  0  0  0
 16  4  1  0  0  0
 14  8  1  0  0  0
  1 17  1  0  0  0
  3 18  1  0  0  0
M  END
>  <CHROM.0>
-59.88758699,68.82236723

>  <CHROM.1>
-169.12157901,167.99906641,-111.96984433,179.42309150,-1.58563699,28.36899483
4.69756792,1.45033253,-1.24397459,2.63964033

>  <Name>
efff4c0c-d806-4178-8ad4-a3398fe6f5ef

>  <RI>
2.80589e+07

>  <Rbt.Current_Directory>
/data/work/jku/5V6S/work/40/8dba899c20c42488f2b1a17844994e

>  <Rbt.Executable>
rbdock ($Id: //depot/dev/client3/rdock/2013.1/src/exe/rbdock.cxx#4 $)

>  <Rbt.Library>
libRbt.so (2013.1, Build901 2013/11/27)

>  <Rbt.Parameter_File>
/rDock_2013.1_src/data/scripts/dock.prm

>  <Rbt.Receptor>
docking.prm

>  <SCORE>
-10.3529

>  <SCORE.INTER>
-8.57973

>  <SCORE.INTER.CONST>
1

>  <SCORE.INTER.POLAR>
-0.130582

>  <SCORE.INTER.REPUL>
0

>  <SCORE.INTER.ROT>
2

>  <SCORE.INTER.VDW>
-15.5358

>  <SCORE.INTER.norm>
-0.536233

>  <SCORE.INTRA>
-0.259561

>  <SCORE.INTRA.DIHEDRAL>
-0.104803

>  <SCORE.INTRA.DIHEDRAL.0>
1.02768

>  <SCORE.INTRA.POLAR>
0

>  <SCORE.INTRA.POLAR.0>
0

>  <SCORE.INTRA.REPUL>
0

>  <SCORE.INTRA.REPUL.0>
0

>  <SCORE.INTRA.VDW>
-0.207159

>  <SCORE.INTRA.VDW.0>
-0.595313

>  <SCORE.INTRA.norm>
-0.0162226

>  <SCORE.RESTR>
0

>  <SCORE.RESTR.CAVITY>
0

>  <SCORE.RESTR.norm>
0

>  <SCORE.SYSTEM>
-1.51363

>  <SCORE.SYSTEM.CONST>
0

>  <SCORE.SYSTEM.DIHEDRAL>
0.384946

>  <SCORE.SYSTEM.POLAR>
-0.502865

>  <SCORE.SYSTEM.VDW>
0.00363402

>  <SCORE.SYSTEM.norm>
-0.094602

>  <SCORE.heavy>
16

>  <SCORE.norm>
-0.647058

>  <enum_code>
B

>  <enum_smi>
OB(O)c1ccc(-c2ccc(F)cc2)nc1

>  <sha256>
c72bb105d6b035de27114119af225dba57f2c17a45c3569f6b7c38d2c0b87170

>  <std_smi>
OB(O)c1ccc(-c2ccc(F)cc2)nc1

>  <uuid>
efff4c0c-d806-4178-8ad4-a3398fe6f5ef

$$$$
efff4c0c-d806-4178-8ad4-a3398fe6f5ef
  rDOCK(R)          3D
libRbt.so/2013.1/901 2013/11/27
 18 19  0  0  0  0  0  0  0  0999 V2000
   -0.1136   33.6023    1.6247 O   0  0  0  0  0  0
   -1.4186   33.0613    2.0129 B   0  0  0  0  0  0
   -2.3565   34.0262    2.6266 O   0  0  0  0  0  0
   -1.4191   31.6242    2.6262 C   0  0  0  0  0  0
   -1.1342   30.4967    1.8990 C   0  0  0  0  0  0
   -1.1599   29.2554    2.5357 C   0  0  0  0  0  0
   -1.4635   29.1383    3.8706 C   0  0  0  0  0  0
   -1.5006   27.8492    4.5759 C   0  0  0  0  0  0
   -1.7770   27.8167    5.9381 C   0  0  0  0  0  0
   -1.8273   26.6454    6.6597 C   0  0  0  0  0  0
   -1.5996   25.4304    6.0418 C   0  0  0  0  0  0
   -1.6419   24.2607    6.7239 F   0  0  0  0  0  0
   -1.3242   25.4454    4.6918 C   0  0  0  0  0  0
   -1.2743   26.6405    3.9621 C   0  0  0  0  0  0
   -1.7344   30.2774    4.5330 N   0  0  0  0  0  0
   -1.7209   31.4933    3.9591 C   0  0  0  0  0  0
    0.5100   33.6824    2.3781 H   0  0  0  0  0  0
   -1.9130   34.8898    2.8148 H   0  0  0  0  0  0
  1  2  1  0  0  0
  2  3  1  0  0  0
  2  4  1  0  0  0
  4  5  2  0  0  0
  5  6  1  0  0  0
  6  7  2  0  0  0
  7  8  1  0  0  0
  8  9  2  0  0  0
  9 10  1  0  0  0
 10 11  2  0  0  0
 11 12  1  0  0  0
 11 13  1  0  0  0
 13 14  2  0  0  0
  7 15  1  0  0  0
 15 16  2  0  0  0
 16  4  1  0  0  0
 14  8  1  0  0  0
  1 17  1  0  0  0
  3 18  1  0  0  0
M  END
>  <CHROM.0>
-59.88758699,68.83529999

>  <CHROM.1>
80.32345917,-8.59245388,-69.27814061,178.06236498,-1.45912640,29.20816341
4.04486066,-1.47759034,-1.18118151,2.77295520

>  <Name>
efff4c0c-d806-4178-8ad4-a3398fe6f5ef

>  <RI>
2.80589e+07

>  <Rbt.Current_Directory>
/data/work/jku/5V6S/work/40/8dba899c20c42488f2b1a17844994e

>  <Rbt.Executable>
rbdock ($Id: //depot/dev/client3/rdock/2013.1/src/exe/rbdock.cxx#4 $)

>  <Rbt.Library>
libRbt.so (2013.1, Build901 2013/11/27)

>  <Rbt.Parameter_File>
/rDock_2013.1_src/data/scripts/dock.prm

>  <Rbt.Receptor>
docking.prm

>  <SCORE>
-15.2895

>  <SCORE.INTER>
-14.0641

>  <SCORE.INTER.CONST>
1

>  <SCORE.INTER.POLAR>
-1.57561

>  <SCORE.INTER.REPUL>
0

>  <SCORE.INTER.ROT>
2

>  <SCORE.INTER.VDW>
-16.107

>  <SCORE.INTER.norm>
-0.879003

>  <SCORE.INTRA>
0.288244

>  <SCORE.INTRA.DIHEDRAL>
0.617732

>  <SCORE.INTRA.DIHEDRAL.0>
1.02768

>  <SCORE.INTRA.POLAR>
0

>  <SCORE.INTRA.POLAR.0>
0

>  <SCORE.INTRA.REPUL>
0

>  <SCORE.INTRA.REPUL.0>
0

>  <SCORE.INTRA.VDW>
-0.0206223

>  <SCORE.INTRA.VDW.0>
-0.595313

>  <SCORE.INTRA.norm>
0.0180152

>  <SCORE.RESTR>
0

>  <SCORE.RESTR.CAVITY>
0

>  <SCORE.RESTR.norm>
0

>  <SCORE.SYSTEM>
-1.51364

>  <SCORE.SYSTEM.CONST>
0

>  <SCORE.SYSTEM.DIHEDRAL>
0.386033

>  <SCORE.SYSTEM.POLAR>
-0.502874

>  <SCORE.SYSTEM.VDW>
0.00311349

>  <SCORE.SYSTEM.norm>
-0.0946027

>  <SCORE.heavy>
16

>  <SCORE.norm>
-0.955591

>  <enum_code>
B

>  <enum_smi>
OB(O)c1ccc(-c2ccc(F)cc2)nc1

>  <sha256>
c72bb105d6b035de27114119af225dba57f2c17a45c3569f6b7c38d2c0b87170

>  <std_smi>
OB(O)c1ccc(-c2ccc(F)cc2)nc1

>  <uuid>
efff4c0c-d806-4178-8ad4-a3398fe6f5ef

$$$$
ef3352f1-75bf-4207-b16d-25fd426a7589
  rDOCK(R)          3D
libRbt.so/2013.1/901 2013/11/27
 19 20  0  0  0  0  0  0  0  0999 V2000
    0.1403   33.3095    0.4636 O   0  0  0  0  0  0
    0.3767   31.8700    0.2919 B   0  0  0  0  0  0
    1.7630   31.4860   -0.0487 O   0  0  0  0  0  0
   -0.3963   30.9005    1.2292 C   0  0  0  0  0  0
   -1.0875   31.3396    2.3354 C   0  0  0  0  0  0
   -1.7765   30.4484    3.1654 C   0  0  0  0  0  0
   -1.7842   29.0958    2.8989 C   0  0  0  0  0  0
   -2.4862   28.1641    3.7396 C   0  0  0  0  0  0
   -2.1059   27.9021    5.0336 C   0  0  0  0  0  0
   -2.7635   27.0069    5.8725 C   0  0  0  0  0  0
   -3.8590   26.3413    5.3853 C   0  0  0  0  0  0
   -4.5200   25.4608    6.1845 F   0  0  0  0  0  0
   -4.2813   26.5672    4.0968 C   0  0  0  0  0  0
   -3.5873   27.4799    3.2852 C   0  0  0  0  0  0
   -1.0997   28.6983    1.8112 N   0  3  0  0  0  0
   -0.4230   29.5457    0.9903 C   0  0  0  0  0  0
    0.3974   33.6058    1.3882 H   0  0  0  0  0  0
    1.7591   31.4023   -1.0523 H   0  0  0  0  0  0
   -1.0664   27.6878    1.5549 H   0  0  0  0  0  0
  1  2  1  0  0  0
  2  3  1  0  0  0
  2  4  1  0  0  0
  4  5  2  0  0  0
  5  6  1  0  0  0
  6  7  2  0  0  0
  7  8  1  0  0  0
  8  9  2  0  0  0
  9 10  1  0  0  0
 10 11  2  0  0  0
 11 12  1  0  0  0
 11 13  1  0  0  0
 13 14  2  0  0  0
  7 15  1  0  0  0
 15 16  2  0  0  0
 16  4  1  0  0  0
 14  8  1  0  0  0
  1 17  1  0  0  0
  3 18  1  0  0  0
 15 19  1  0  0  0
M  END
>  <CHROM.0>
-59.88758699,68.26030777

>  <CHROM.1>
-82.83648056,-95.92737250,-11.65329185,-67.02149021,-1.72777819,29.09518528
2.91880516,0.40659086,0.98636033,0.37453116

>  <Name>
ef3352f1-75bf-4207-b16d-25fd426a7589

>  <RI>
3.77336e+07

>  <Rbt.Current_Directory>
/data/work/jku/5V6S/work/40/8dba899c20c42488f2b1a17844994e

>  <Rbt.Executable>
rbdock ($Id: //depot/dev/client3/rdock/2013.1/src/exe/rbdock.cxx#4 $)

>  <Rbt.Library>
libRbt.so (2013.1, Build901 2013/11/27)

>  <Rbt.Parameter_File>
/rDock_2013.1_src/data/scripts/dock.prm

>  <Rbt.Receptor>
docking.prm

>  <SCORE>
-11.9509

>  <SCORE.INTER>
-11.4726

>  <SCORE.INTER.CONST>
1

>  <SCORE.INTER.POLAR>
-1.08972

>  <SCORE.INTER.REPUL>
0

>  <SCORE.INTER.ROT>
2

>  <SCORE.INTER.VDW>
-15.1676

>  <SCORE.INTER.norm>
-0.71704

>  <SCORE.INTRA>
1.03341

>  <SCORE.INTRA.DIHEDRAL>
4.11375

>  <SCORE.INTRA.DIHEDRAL.0>
1.54292

>  <SCORE.INTRA.POLAR>
0

>  <SCORE.INTRA.POLAR.0>
0

>  <SCORE.INTRA.REPUL>
0

>  <SCORE.INTRA.REPUL.0>
0

>  <SCORE.INTRA.VDW>
-1.02346

>  <SCORE.INTRA.VDW.0>
-0.349713

>  <SCORE.INTRA.norm>
0.0645881

>  <SCORE.RESTR>
0

>  <SCORE.RESTR.CAVITY>
0

>  <SCORE.RESTR.norm>
0

>  <SCORE.SYSTEM>
-1.51166

>  <SCORE.SYSTEM.CONST>
0

>  <SCORE.SYSTEM.DIHEDRAL>
0.33913

>  <SCORE.SYSTEM.POLAR>
-0.502311

>  <SCORE.SYSTEM.VDW>
0.0266306

>  <SCORE.SYSTEM.norm>
-0.0944789

>  <SCORE.heavy>
16

>  <SCORE.norm>
-0.746931

>  <enum_code>
M

>  <enum_smi>
OB(O)c1ccc(-c2ccc(F)cc2)[nH+]c1

>  <sha256>
c72bb105d6b035de27114119af225dba57f2c17a45c3569f6b7c38d2c0b87170

>  <std_smi>
OB(O)c1ccc(-c2ccc(F)cc2)nc1

>  <uuid>
ef3352f1-75bf-4207-b16d-25fd426a7589

$$$$
ef3352f1-75bf-4207-b16d-25fd426a7589
  rDOCK(R)          3D
libRbt.so/2013.1/901 2013/11/27
 19 20  0  0  0  0  0  0  0  0999 V2000
    2.4306   31.7163   -0.6762 O   0  0  0  0  0  0
    1.6393   32.7607   -0.0124 B   0  0  0  0  0  0
    1.3045   33.9354   -0.8452 O   0  0  0  0  0  0
    0.5528   32.3015    0.9998 C   0  0  0  0  0  0
    0.1038   33.1123    2.0172 C   0  0  0  0  0  0
   -0.8756   32.6777    2.9172 C   0  0  0  0  0  0
   -1.4237   31.4171    2.8116 C   0  0  0  0  0  0
   -2.4309   30.9522    3.7264 C   0  0  0  0  0  0
   -2.3414   31.1398    5.0846 C   0  0  0  0  0  0
   -3.2983   30.7024    5.9960 C   0  0  0  0  0  0
   -4.4011   30.0428    5.5172 C   0  0  0  0  0  0
   -5.3514   29.6048    6.3866 F   0  0  0  0  0  0
   -4.5392   29.8290    4.1663 C   0  0  0  0  0  0
   -3.5485   30.2880    3.2826 C   0  0  0  0  0  0
   -0.9640   30.6492    1.8073 N   0  3  0  0  0  0
   -0.0134   31.0499    0.9210 C   0  0  0  0  0  0
    2.0527   31.5036   -1.5821 H   0  0  0  0  0  0
    2.1849   34.2162   -1.2456 H   0  0  0  0  0  0
   -1.3382   29.6849    1.6732 H   0  0  0  0  0  0
  1  2  1  0  0  0
  2  3  1  0  0  0
  2  4  1  0  0  0
  4  5  2  0  0  0
  5  6  1  0  0  0
  6  7  2  0  0  0
  7  8  1  0  0  0
  8  9  2  0  0  0
  9 10  1  0  0  0
 10 11  2  0  0  0
 11 12  1  0  0  0
 11 13  1  0  0  0
 13 14  2  0  0  0
  7 15  1  0  0  0
 15 16  2  0  0  0
 16  4  1  0  0  0
 14  8  1  0  0  0
  1 17  1  0  0  0
  3 18  1  0  0  0
 15 19  1  0  0  0
M  END
>  <CHROM.0>
-59.88758699,68.84745078

>  <CHROM.1>
-46.62500850,-50.18631376,155.48379956,-44.65667968,-1.45046594,31.36905894
2.73044362,0.22821354,-0.79417059,-2.39596292

>  <Name>
ef3352f1-75bf-4207-b16d-25fd426a7589

>  <RI>
3.77336e+07

>  <Rbt.Current_Directory>
/data/work/jku/5V6S/work/40/8dba899c20c42488f2b1a17844994e

>  <Rbt.Executable>
rbdock ($Id: //depot/dev/client3/rdock/2013.1/src/exe/rbdock.cxx#4 $)

>  <Rbt.Library>
libRbt.so (2013.1, Build901 2013/11/27)

>  <Rbt.Parameter_File>
/rDock_2013.1_src/data/scripts/dock.prm

>  <Rbt.Receptor>
docking.prm

>  <SCORE>
-13.8064

>  <SCORE.INTER>
-12.5744

>  <SCORE.INTER.CONST>
1

>  <SCORE.INTER.POLAR>
-1.08972

>  <SCORE.INTER.REPUL>
0.0146063

>  <SCORE.INTER.ROT>
2

>  <SCORE.INTER.VDW>
-16.3424

>  <SCORE.INTER.norm>
-0.785901

>  <SCORE.INTRA>
0.281661

>  <SCORE.INTRA.DIHEDRAL>
2.02265

>  <SCORE.INTRA.DIHEDRAL.0>
1.54292

>  <SCORE.INTRA.POLAR>
0

>  <SCORE.INTRA.POLAR.0>
0

>  <SCORE.INTRA.REPUL>
0

>  <SCORE.INTRA.REPUL.0>
0

>  <SCORE.INTRA.VDW>
-0.729665

>  <SCORE.INTRA.VDW.0>
-0.349713

>  <SCORE.INTRA.norm>
0.0176038

>  <SCORE.RESTR>
0

>  <SCORE.RESTR.CAVITY>
0

>  <SCORE.RESTR.norm>
0

>  <SCORE.SYSTEM>
-1.51365

>  <SCORE.SYSTEM.CONST>
0

>  <SCORE.SYSTEM.DIHEDRAL>
0.387056

>  <SCORE.SYSTEM.POLAR>
-0.502883

>  <SCORE.SYSTEM.VDW>
0.00262478

>  <SCORE.SYSTEM.norm>
-0.0946031

>  <SCORE.heavy>
16

>  <SCORE.norm>
-0.862901

>  <enum_code>
M

>  <enum_smi>
OB(O)c1ccc(-c2ccc(F)cc2)[nH+]c1

>  <sha256>
c72bb105d6b035de27114119af225dba57f2c17a45c3569f6b7c38d2c0b87170

>  <std_smi>
OB(O)c1ccc(-c2ccc(F)cc2)nc1

>  <uuid>
ef3352f1-75bf-4207-b16d-25fd426a7589

$$$$
ef3352f1-75bf-4207-b16d-25fd426a7589
  rDOCK(R)          3D
libRbt.so/2013.1/901 2013/11/27
 19 20  0  0  0  0  0  0  0  0999 V2000
   -2.3892   34.0960    2.4349 O   0  0  0  0  0  0
   -1.4215   33.0727    2.0177 B   0  0  0  0  0  0
   -0.0838   33.5747    1.6382 O   0  0  0  0  0  0
   -1.4602   31.7064    2.7577 C   0  0  0  0  0  0
   -1.9140   31.5815    4.0510 C   0  0  0  0  0  0
   -1.9398   30.3408    4.6977 C   0  0  0  0  0  0
   -1.5092   29.1994    4.0554 C   0  0  0  0  0  0
   -1.5278   27.9156    4.7027 C   0  0  0  0  0  0
   -1.2398   26.7474    4.0393 C   0  0  0  0  0  0
   -1.2491   25.4900    4.6365 C   0  0  0  0  0  0
   -1.5641   25.4031    5.9683 C   0  0  0  0  0  0
   -1.5805   24.1863    6.5764 F   0  0  0  0  0  0
   -1.8604   26.5423    6.6784 C   0  0  0  0  0  0
   -1.8388   27.7908    6.0349 C   0  0  0  0  0  0
   -1.0717   29.3546    2.7928 N   0  3  0  0  0  0
   -1.0375   30.5496    2.1442 C   0  0  0  0  0  0
   -1.9185   34.9051    2.7993 H   0  0  0  0  0  0
    0.3935   33.7006    2.5160 H   0  0  0  0  0  0
   -0.7323   28.5298    2.2521 H   0  0  0  0  0  0
  1  2  1  0  0  0
  2  3  1  0  0  0
  2  4  1  0  0  0
  4  5  2  0  0  0
  5  6  1  0  0  0
  6  7  2  0  0  0
  7  8  1  0  0  0
  8  9  2  0  0  0
  9 10  1  0  0  0
 10 11  2  0  0  0
 11 12  1  0  0  0
 11 13  1  0  0  0
 13 14  2  0  0  0
  7 15  1  0  0  0
 15 16  2  0  0  0
 16  4  1  0  0  0
 14  8  1  0  0  0
  1 17  1  0  0  0
  3 18  1  0  0  0
 15 19  1  0  0  0
M  END
>  <CHROM.0>
-59.88758699,68.64709922

>  <CHROM.1>
-25.89219945,81.48159870,-27.05438414,172.87244935,-1.46454349,29.22768820
4.07745005,1.51087119,1.08048429,-0.39270077

>  <Name>
ef3352f1-75bf-4207-b16d-25fd426a7589

>  <RI>
3.77336e+07

>  <Rbt.Current_Directory>
/data/work/jku/5V6S/work/40/8dba899c20c42488f2b1a17844994e

>  <Rbt.Executable>
rbdock ($Id: //depot/dev/client3/rdock/2013.1/src/exe/rbdock.cxx#4 $)

>  <Rbt.Library>
libRbt.so (2013.1, Build901 2013/11/27)

>  <Rbt.Parameter_File>
/rDock_2013.1_src/data/scripts/dock.prm

>  <Rbt.Receptor>
docking.prm

>  <SCORE>
-16.2087

>  <SCORE.INTER>
-14.6806

>  <SCORE.INTER.CONST>
1

>  <SCORE.INTER.POLAR>
-1.59962

>  <SCORE.INTER.REPUL>
0

>  <SCORE.INTER.ROT>
2

>  <SCORE.INTER.VDW>
-16.6419

>  <SCORE.INTER.norm>
-0.917536

>  <SCORE.INTRA>
-0.0148101

>  <SCORE.INTRA.DIHEDRAL>
0.0873377

>  <SCORE.INTRA.DIHEDRAL.0>
1.54292

>  <SCORE.INTRA.POLAR>
0

>  <SCORE.INTRA.POLAR.0>
0

>  <SCORE.INTRA.REPUL>
0

>  <SCORE.INTRA.REPUL.0>
0

>  <SCORE.INTRA.VDW>
-0.058479

>  <SCORE.INTRA.VDW.0>
-0.349713

>  <SCORE.INTRA.norm>
-0.000925631

>  <SCORE.RESTR>
0

>  <SCORE.RESTR.CAVITY>
0

>  <SCORE.RESTR.norm>
0

>  <SCORE.SYSTEM>
-1.51334

>  <SCORE.SYSTEM.CONST>
0

>  <SCORE.SYSTEM.DIHEDRAL>
0.370358

>  <SCORE.SYSTEM.POLAR>
-0.50272

>  <SCORE.SYSTEM.VDW>
0.0107264

>  <SCORE.SYSTEM.norm>
-0.0945839

>  <SCORE.heavy>
16

>  <SCORE.norm>
-1.01305

>  <enum_code>
M

>  <enum_smi>
OB(O)c1ccc(-c2ccc(F)cc2)[nH+]c1

>  <sha256>
c72bb105d6b035de27114119af225dba57f2c17a45c3569f6b7c38d2c0b87170

>  <std_smi>
OB(O)c1ccc(-c2ccc(F)cc2)nc1

>  <uuid>
ef3352f1-75bf-4207-b16d-25fd426a7589

$$$$
ef3352f1-75bf-4207-b16d-25fd426a7589
  rDOCK(R)          3D
libRbt.so/2013.1/901 2013/11/27
 19 20  0  0  0  0  0  0  0  0999 V2000
   -1.2632   34.0915    3.9007 O   0  0  0  0  0  0
   -1.3822   33.0411    2.8808 B   0  0  0  0  0  0
   -0.5961   33.2557    1.6473 O   0  0  0  0  0  0
   -1.5006   31.5724    3.3756 C   0  0  0  0  0  0
   -1.2656   30.4959    2.5510 C   0  0  0  0  0  0
   -1.3782   29.1817    3.0183 C   0  0  0  0  0  0
   -1.7297   28.9238    4.3263 C   0  0  0  0  0  0
   -1.8505   27.5808    4.8254 C   0  0  0  0  0  0
   -1.5628   27.2454    6.1263 C   0  0  0  0  0  0
   -1.6695   25.9560    6.6400 C   0  0  0  0  0  0
   -2.0866   24.9532    5.8029 C   0  0  0  0  0  0
   -2.1994   23.6840    6.2796 F   0  0  0  0  0  0
   -2.3872   25.2355    4.4915 C   0  0  0  0  0  0
   -2.2653   26.5515    4.0156 C   0  0  0  0  0  0
   -1.9526   29.9968    5.1065 N   0  3  0  0  0  0
   -1.8493   31.2824    4.6747 C   0  0  0  0  0  0
   -1.5271   34.9850    3.5255 H   0  0  0  0  0  0
    0.3609   33.1371    1.9378 H   0  0  0  0  0  0
   -2.2220   29.8694    6.1060 H   0  0  0  0  0  0
  1  2  1  0  0  0
  2  3  1  0  0  0
  2  4  1  0  0  0
  4  5  2  0  0  0
  5  6  1  0  0  0
  6  7  2  0  0  0
  7  8  1  0  0  0
  8  9  2  0  0  0
  9 10  1  0  0  0
 10 11  2  0  0  0
 11 12  1  0  0  0
 11 13  1  0  0  0
 13 14  2  0  0  0
  7 15  1  0  0  0
 15 16  2  0  0  0
 16  4  1  0  0  0
 14  8  1  0  0  0
  1 17  1  0  0  0
  3 18  1  0  0  0
 15 19  1  0  0  0
M  END
>  <CHROM.0>
-59.88758699,69.37763682

>  <CHROM.1>
57.34346304,69.90229974,-162.47992831,147.93980236,-1.67178243,28.95326597
4.37072404,0.56077352,1.44131427,0.66693111

>  <Name>
ef3352f1-75bf-4207-b16d-25fd426a7589

>  <RI>
3.77336e+07

>  <Rbt.Current_Directory>
/data/work/jku/5V6S/work/40/8dba899c20c42488f2b1a17844994e

>  <Rbt.Executable>
rbdock ($Id: //depot/dev/client3/rdock/2013.1/src/exe/rbdock.cxx#4 $)

>  <Rbt.Library>
libRbt.so (2013.1, Build901 2013/11/27)

>  <Rbt.Parameter_File>
/rDock_2013.1_src/data/scripts/dock.prm

>  <Rbt.Receptor>
docking.prm

>  <SCORE>
-13.6727

>  <SCORE.INTER>
-12.2451

>  <SCORE.INTER.CONST>
1

>  <SCORE.INTER.POLAR>
-1.24132

>  <SCORE.INTER.REPUL>
0

>  <SCORE.INTER.ROT>
2

>  <SCORE.INTER.VDW>
-15.4246

>  <SCORE.INTER.norm>
-0.765322

>  <SCORE.INTRA>
0.0850483

>  <SCORE.INTRA.DIHEDRAL>
0.795913

>  <SCORE.INTRA.DIHEDRAL.0>
1.54292

>  <SCORE.INTRA.POLAR>
0

>  <SCORE.INTRA.POLAR.0>
0

>  <SCORE.INTRA.REPUL>
0

>  <SCORE.INTRA.REPUL.0>
0

>  <SCORE.INTRA.VDW>
-0.312908

>  <SCORE.INTRA.VDW.0>
-0.349713

>  <SCORE.INTRA.norm>
0.00531552

>  <SCORE.RESTR>
0

>  <SCORE.RESTR.CAVITY>
0

>  <SCORE.RESTR.norm>
0

>  <SCORE.SYSTEM>
-1.51264

>  <SCORE.SYSTEM.CONST>
0

>  <SCORE.SYSTEM.DIHEDRAL>
0.432949

>  <SCORE.SYSTEM.POLAR>
-0.503159

>  <SCORE.SYSTEM.VDW>
-0.0183716

>  <SCORE.SYSTEM.norm>
-0.0945399

>  <SCORE.heavy>
16

>  <SCORE.norm>
-0.854546

>  <enum_code>
M

>  <enum_smi>
OB(O)c1ccc(-c2ccc(F)cc2)[nH+]c1

>  <sha256>
c72bb105d6b035de27114119af225dba57f2c17a45c3569f6b7c38d2c0b87170

>  <std_smi>
OB(O)c1ccc(-c2ccc(F)cc2)nc1

>  <uuid>
ef3352f1-75bf-4207-b16d-25fd426a7589

$$$$
ef3352f1-75bf-4207-b16d-25fd426a7589
  rDOCK(R)          3D
libRbt.so/2013.1/901 2013/11/27
 19 20  0  0  0  0  0  0  0  0999 V2000
   -2.6760   23.7536    6.3654 O   0  0  0  0  0  0
   -1.6282   24.7332    6.6816 B   0  0  0  0  0  0
   -0.3230   24.1664    7.0826 O   0  0  0  0  0  0
   -1.5826   26.0330    5.8305 C   0  0  0  0  0  0
   -2.0232   27.2448    6.3119 C   0  0  0  0  0  0
   -1.9727   28.4024    5.5275 C   0  0  0  0  0  0
   -1.4771   28.3644    4.2415 C   0  0  0  0  0  0
   -1.4169   29.5428    3.4199 C   0  0  0  0  0  0
   -1.0333   29.5074    2.1010 C   0  0  0  0  0  0
   -0.9647   30.6291    1.2795 C   0  0  0  0  0  0
   -1.2987   31.8481    1.8113 C   0  0  0  0  0  0
   -1.2402   32.9603    1.0301 F   0  0  0  0  0  0
   -1.6894   31.9386    3.1262 C   0  0  0  0  0  0
   -1.7444   30.7801    3.9189 C   0  0  0  0  0  0
   -1.0546   27.1658    3.8005 N   0  3  0  0  0  0
   -1.0939   26.0278    4.5443 C   0  0  0  0  0  0
   -2.4068   23.1825    5.5842 H   0  0  0  0  0  0
   -0.3927   24.0628    8.0820 H   0  0  0  0  0  0
   -0.6688   27.0699    2.8362 H   0  0  0  0  0  0
  1  2  1  0  0  0
  2  3  1  0  0  0
  2  4  1  0  0  0
  4  5  2  0  0  0
  5  6  1  0  0  0
  6  7  2  0  0  0
  7  8  1  0  0  0
  8  9  2  0  0  0
  9 10  1  0  0  0
 10 11  2  0  0  0
 11 12  1  0  0  0
 11 13  1  0  0  0
 13 14  2  0  0  0
  7 15  1  0  0  0
 15 16  2  0  0  0
 16  4  1  0  0  0
 14  8  1  0  0  0
  1 17  1  0  0  0
  3 18  1  0  0  0
 15 19  1  0  0  0
M  END
>  <CHROM.0>
-59.88758699,68.96995099

>  <CHROM.1>
-61.87319165,-89.25347122,104.48027359,-174.36852161,-1.43916530,28.29699511
4.17249493,-1.65039271,1.21980711,-0.49823246

>  <Name>
ef3352f1-75bf-4207-b16d-25fd426a7589

>  <RI>
3.77336e+07

>  <Rbt.Current_Directory>
/data/work/jku/5V6S/work/40/8dba899c20c42488f2b1a17844994e

>  <Rbt.Executable>
rbdock ($Id: //depot/dev/client3/rdock/2013.1/src/exe/rbdock.cxx#4 $)

>  <Rbt.Library>
libRbt.so (2013.1, Build901 2013/11/27)

>  <Rbt.Parameter_File>
/rDock_2013.1_src/data/scripts/dock.prm

>  <Rbt.Receptor>
docking.prm

>  <SCORE>
-11.0256

>  <SCORE.INTER>
-9.40768

>  <SCORE.INTER.CONST>
1

>  <SCORE.INTER.POLAR>
-0.0466225

>  <SCORE.INTER.REPUL>
0

>  <SCORE.INTER.ROT>
2

>  <SCORE.INTER.VDW>
-16.6492

>  <SCORE.INTER.norm>
-0.58798

>  <SCORE.INTRA>
-0.104295

>  <SCORE.INTRA.DIHEDRAL>
-0.00238137

>  <SCORE.INTRA.DIHEDRAL.0>
1.54292

>  <SCORE.INTRA.POLAR>
0

>  <SCORE.INTRA.POLAR.0>
0

>  <SCORE.INTRA.REPUL>
0

>  <SCORE.INTRA.REPUL.0>
0

>  <SCORE.INTRA.VDW>
-0.103105

>  <SCORE.INTRA.VDW.0>
-0.349713

>  <SCORE.INTRA.norm>
-0.00651845

>  <SCORE.RESTR>
0

>  <SCORE.RESTR.CAVITY>
0

>  <SCORE.RESTR.norm>
0

>  <SCORE.SYSTEM>
-1.51365

>  <SCORE.SYSTEM.CONST>
0

>  <SCORE.SYSTEM.DIHEDRAL>
0.39744

>  <SCORE.SYSTEM.POLAR>
-0.502967

>  <SCORE.SYSTEM.VDW>
-0.00228333

>  <SCORE.SYSTEM.norm>
-0.0946032

>  <SCORE.heavy>
16

>  <SCORE.norm>
-0.689102

>  <enum_code>
M

>  <enum_smi>
OB(O)c1ccc(-c2ccc(F)cc2)[nH+]c1

>  <sha256>
c72bb105d6b035de27114119af225dba57f2c17a45c3569f6b7c38d2c0b87170

>  <std_smi>
OB(O)c1ccc(-c2ccc(F)cc2)nc1

>  <uuid>
ef3352f1-75bf-4207-b16d-25fd426a7589

$$$$
1ca2cdcc-59cc-4469-8a94-5e180de2a614
  rDOCK(R)          3D
libRbt.so/2013.1/901 2013/11/27
 17 18  0  0  0  0  0  0  0  0999 V2000
   -0.8873   32.0285    1.5751 C   0  0  0  0  0  0
   -1.1174   30.7357    0.8003 C   0  0  0  0  0  0
   -1.9395   29.6415    1.5130 C   0  0  0  0  0  0
   -2.2067   28.3994    0.6342 C   0  0  0  0  0  0
   -3.1249   28.6046   -0.5607 C   0  0  0  0  0  0
   -1.3343   29.2303    2.7769 N   0  0  0  0  0  0
   -2.0979   28.4116    3.6150 C   0  0  0  0  0  0
   -3.3069   28.8138    4.0886 N   0  0  0  0  0  0
   -3.9906   27.9924    4.9149 C   0  0  0  0  0  0
   -3.6436   26.7668    5.3554 N   0  0  0  0  0  0
   -2.4500   26.4075    4.8576 C   0  0  0  0  0  0
   -1.6355   27.1398    4.0096 C   0  0  0  0  0  0
   -0.4877   26.4326    3.6997 N   0  0  0  0  0  0
   -0.6031   25.2998    4.3620 C   0  0  0  0  0  0
   -1.7698   25.2424    5.0731 N   0  0  0  0  0  0
   -2.2147   24.1555    5.9034 C   0  0  0  0  0  0
   -0.3883   28.8557    2.7212 H   0  0  0  0  0  0
  1  2  1  0  0  0
  2  3  1  0  0  0
  3  4  1  0  0  0
  4  5  1  0  0  0
  3  6  1  0  0  0
  6  7  1  0  0  0
  7  8  2  0  0  0
  8  9  1  0  0  0
  9 10  2  0  0  0
 10 11  1  0  0  0
 11 12  2  0  0  0
 12 13  1  0  0  0
 13 14  2  0  0  0
 14 15  1  0  0  0
 15 16  1  0  0  0
 12  7  1  0  0  0
 15 11  1  0  0  0
  6 17  1  0  0  0
M  END
>  <CHROM.0>
-59.88758699,68.80725148

>  <CHROM.1>
176.33703207,-67.55196322,169.63231821,-59.20059616,-2.04125177,27.85898948
3.24374687,1.46801571,0.87538111,-0.65352298

>  <Name>
1ca2cdcc-59cc-4469-8a94-5e180de2a614

>  <RI>
2.46551e+07

>  <Rbt.Current_Directory>
/data/work/jku/5V6S/work/40/8dba899c20c42488f2b1a17844994e

>  <Rbt.Executable>
rbdock ($Id: //depot/dev/client3/rdock/2013.1/src/exe/rbdock.cxx#4 $)

>  <Rbt.Library>
libRbt.so (2013.1, Build901 2013/11/27)

>  <Rbt.Parameter_File>
/rDock_2013.1_src/data/scripts/dock.prm

>  <Rbt.Receptor>
docking.prm

>  <SCORE>
-11.3732

>  <SCORE.INTER>
-6.57967

>  <SCORE.INTER.CONST>
1

>  <SCORE.INTER.POLAR>
0

>  <SCORE.INTER.REPUL>
0

>  <SCORE.INTER.ROT>
4

>  <SCORE.INTER.VDW>
-15.9797

>  <SCORE.INTER.norm>
-0.411229

>  <SCORE.INTRA>
-3.27994

>  <SCORE.INTRA.DIHEDRAL>
-3.7283

>  <SCORE.INTRA.DIHEDRAL.0>
4.77808

>  <SCORE.INTRA.POLAR>
0

>  <SCORE.INTRA.POLAR.0>
0

>  <SCORE.INTRA.REPUL>
0

>  <SCORE.INTRA.REPUL.0>
0

>  <SCORE.INTRA.VDW>
-1.41579

>  <SCORE.INTRA.VDW.0>
0.750746

>  <SCORE.INTRA.norm>
-0.204996

>  <SCORE.RESTR>
0

>  <SCORE.RESTR.CAVITY>
0

>  <SCORE.RESTR.norm>
0

>  <SCORE.SYSTEM>
-1.51362

>  <SCORE.SYSTEM.CONST>
0

>  <SCORE.SYSTEM.DIHEDRAL>
0.383677

>  <SCORE.SYSTEM.POLAR>
-0.502853

>  <SCORE.SYSTEM.VDW>
0.00424291

>  <SCORE.SYSTEM.norm>
-0.0946012

>  <SCORE.heavy>
16

>  <SCORE.norm>
-0.710827

>  <enum_code>
B

>  <enum_smi>
CCC(CC)Nc1ncnc2c1ncn2C

>  <sha256>
1c5e02397d5873f6efa1b3fea650d685ce255b2bb069a261985e6139479ba70b

>  <std_smi>
CCC(CC)Nc1ncnc2c1ncn2C

>  <uuid>
1ca2cdcc-59cc-4469-8a94-5e180de2a614

$$$$
1ca2cdcc-59cc-4469-8a94-5e180de2a614
  rDOCK(R)          3D
libRbt.so/2013.1/901 2013/11/27
 17 18  0  0  0  0  0  0  0  0999 V2000
   -3.0530   23.0321    4.9925 C   0  0  0  0  0  0
   -2.3142   24.2420    5.5535 C   0  0  0  0  0  0
   -2.7723   25.6257    5.0473 C   0  0  0  0  0  0
   -4.1895   26.0180    5.5207 C   0  0  0  0  0  0
   -4.7689   27.2931    4.9278 C   0  0  0  0  0  0
   -1.8263   26.6827    5.3948 N   0  0  0  0  0  0
   -1.6007   27.6786    4.4391 C   0  0  0  0  0  0
   -1.1814   27.3728    3.1827 N   0  0  0  0  0  0
   -0.9554   28.3768    2.3075 C   0  0  0  0  0  0
   -1.1002   29.7033    2.4967 N   0  0  0  0  0  0
   -1.5225   29.9581    3.7450 C   0  0  0  0  0  0
   -1.7899   29.0408    4.7479 C   0  0  0  0  0  0
   -2.2205   29.6808    5.8962 N   0  0  0  0  0  0
   -2.1985   30.9627    5.5937 C   0  0  0  0  0  0
   -1.7839   31.1752    4.3079 N   0  0  0  0  0  0
   -1.6439   32.4475    3.6519 C   0  0  0  0  0  0
   -1.9574   27.1216    6.3050 H   0  0  0  0  0  0
  1  2  1  0  0  0
  2  3  1  0  0  0
  3  4  1  0  0  0
  4  5  1  0  0  0
  3  6  1  0  0  0
  6  7  1  0  0  0
  7  8  2  0  0  0
  8  9  1  0  0  0
  9 10  2  0  0  0
 10 11  1  0  0  0
 11 12  2  0  0  0
 12 13  1  0  0  0
 13 14  2  0  0  0
 14 15  1  0  0  0
 15 16  1  0  0  0
 12  7  1  0  0  0
 15 11  1  0  0  0
  6 17  1  0  0  0
M  END
>  <CHROM.0>
-59.88758699,69.65256691

>  <CHROM.1>
67.86627705,-173.07361759,141.22680969,-56.29881983,-2.21308262,28.04337694
4.50403185,-1.90861904,0.86211186,0.06942985

>  <Name>
1ca2cdcc-59cc-4469-8a94-5e180de2a614

>  <RI>
2.46551e+07

>  <Rbt.Current_Directory>
/data/work/jku/5V6S/work/40/8dba899c20c42488f2b1a17844994e

>  <Rbt.Executable>
rbdock ($Id: //depot/dev/client3/rdock/2013.1/src/exe/rbdock.cxx#4 $)

>  <Rbt.Library>
libRbt.so (2013.1, Build901 2013/11/27)

>  <Rbt.Parameter_File>
/rDock_2013.1_src/data/scripts/dock.prm

>  <Rbt.Receptor>
docking.prm

>  <SCORE>
-12.9013

>  <SCORE.INTER>
-8.44188

>  <SCORE.INTER.CONST>
1

>  <SCORE.INTER.POLAR>
0

>  <SCORE.INTER.REPUL>
0.000956958

>  <SCORE.INTER.ROT>
4

>  <SCORE.INTER.VDW>
-17.8467

>  <SCORE.INTER.norm>
-0.527617

>  <SCORE.INTRA>
-2.94834

>  <SCORE.INTRA.DIHEDRAL>
-2.32293

>  <SCORE.INTRA.DIHEDRAL.0>
4.77808

>  <SCORE.INTRA.POLAR>
0

>  <SCORE.INTRA.POLAR.0>
0

>  <SCORE.INTRA.REPUL>
0

>  <SCORE.INTRA.REPUL.0>
0

>  <SCORE.INTRA.VDW>
-1.78688

>  <SCORE.INTRA.VDW.0>
0.750746

>  <SCORE.INTRA.norm>
-0.184271

>  <SCORE.RESTR>
0

>  <SCORE.RESTR.CAVITY>
0

>  <SCORE.RESTR.norm>
0

>  <SCORE.SYSTEM>
-1.51108

>  <SCORE.SYSTEM.CONST>
0

>  <SCORE.SYSTEM.DIHEDRAL>
0.457713

>  <SCORE.SYSTEM.POLAR>
-0.503213

>  <SCORE.SYSTEM.VDW>
-0.0290095

>  <SCORE.SYSTEM.norm>
-0.0944424

>  <SCORE.heavy>
16

>  <SCORE.norm>
-0.806331

>  <enum_code>
B

>  <enum_smi>
CCC(CC)Nc1ncnc2c1ncn2C

>  <sha256>
1c5e02397d5873f6efa1b3fea650d685ce255b2bb069a261985e6139479ba70b

>  <std_smi>
CCC(CC)Nc1ncnc2c1ncn2C

>  <uuid>
1ca2cdcc-59cc-4469-8a94-5e180de2a614

$$$$
1ca2cdcc-59cc-4469-8a94-5e180de2a614
  rDOCK(R)          3D
libRbt.so/2013.1/901 2013/11/27
 17 18  0  0  0  0  0  0  0  0999 V2000
   -2.7860   31.5534    5.3105 C   0  0  0  0  0  0
   -2.4333   30.2757    6.0640 C   0  0  0  0  0  0
   -2.5348   28.9564    5.2701 C   0  0  0  0  0  0
   -1.5560   28.8768    4.0775 C   0  0  0  0  0  0
   -1.7469   27.7054    3.1265 C   0  0  0  0  0  0
   -2.3683   27.7831    6.1237 N   0  0  0  0  0  0
   -2.9917   26.6003    5.7135 C   0  0  0  0  0  0
   -2.3148   25.4225    5.6657 N   0  0  0  0  0  0
   -2.9601   24.3155    5.2379 C   0  0  0  0  0  0
   -4.2422   24.1924    4.8410 N   0  0  0  0  0  0
   -4.8732   25.3750    4.9119 C   0  0  0  0  0  0
   -4.3459   26.5882    5.3227 C   0  0  0  0  0  0
   -5.3068   27.5823    5.2747 N   0  0  0  0  0  0
   -6.3900   26.9800    4.8286 C   0  0  0  0  0  0
   -6.1738   25.6497    4.5967 N   0  0  0  0  0  0
   -7.1352   24.6976    4.1086 C   0  0  0  0  0  0
   -1.4151   27.5709    6.4147 H   0  0  0  0  0  0
  1  2  1  0  0  0
  2  3  1  0  0  0
  3  4  1  0  0  0
  4  5  1  0  0  0
  3  6  1  0  0  0
  6  7  1  0  0  0
  7  8  2  0  0  0
  8  9  1  0  0  0
  9 10  2  0  0  0
 10 11  1  0  0  0
 11 12  2  0  0  0
 12 13  1  0  0  0
 13 14  2  0  0  0
 14 15  1  0  0  0
 15 16  1  0  0  0
 12  7  1  0  0  0
 15 11  1  0  0  0
  6 17  1  0  0  0
M  END
>  <CHROM.0>
-59.88758699,68.68326290

>  <CHROM.1>
63.14901946,-170.88763633,152.50999216,130.60664874,-3.73946235,27.07791317
5.01510818,0.97051545,-0.05349108,0.05482210

>  <Name>
1ca2cdcc-59cc-4469-8a94-5e180de2a614

>  <RI>
2.46551e+07

>  <Rbt.Current_Directory>
/data/work/jku/5V6S/work/40/8dba899c20c42488f2b1a17844994e

>  <Rbt.Executable>
rbdock ($Id: //depot/dev/client3/rdock/2013.1/src/exe/rbdock.cxx#4 $)

>  <Rbt.Library>
libRbt.so (2013.1, Build901 2013/11/27)

>  <Rbt.Parameter_File>
/rDock_2013.1_src/data/scripts/dock.prm

>  <Rbt.Receptor>
docking.prm

>  <SCORE>
-11.1091

>  <SCORE.INTER>
-6.51929

>  <SCORE.INTER.CONST>
1

>  <SCORE.INTER.POLAR>
0

>  <SCORE.INTER.REPUL>
0

>  <SCORE.INTER.ROT>
4

>  <SCORE.INTER.VDW>
-15.9193

>  <SCORE.INTER.norm>
-0.407456

>  <SCORE.INTRA>
-3.0764

>  <SCORE.INTRA.DIHEDRAL>
-3.01195

>  <SCORE.INTRA.DIHEDRAL.0>
4.77808

>  <SCORE.INTRA.POLAR>
0

>  <SCORE.INTRA.POLAR.0>
0

>  <SCORE.INTRA.REPUL>
0

>  <SCORE.INTRA.REPUL.0>
0

>  <SCORE.INTRA.VDW>
-1.57043

>  <SCORE.INTRA.VDW.0>
0.750746

>  <SCORE.INTRA.norm>
-0.192275

>  <SCORE.RESTR>
0

>  <SCORE.RESTR.CAVITY>
0

>  <SCORE.RESTR.norm>
0

>  <SCORE.SYSTEM>
-1.51343

>  <SCORE.SYSTEM.CONST>
0

>  <SCORE.SYSTEM.DIHEDRAL>
0.373345

>  <SCORE.SYSTEM.POLAR>
-0.502752

>  <SCORE.SYSTEM.VDW>
0.00925723

>  <SCORE.SYSTEM.norm>
-0.0945891

>  <SCORE.heavy>
16

>  <SCORE.norm>
-0.69432

>  <enum_code>
B

>  <enum_smi>
CCC(CC)Nc1ncnc2c1ncn2C

>  <sha256>
1c5e02397d5873f6efa1b3fea650d685ce255b2bb069a261985e6139479ba70b

>  <std_smi>
CCC(CC)Nc1ncnc2c1ncn2C

>  <uuid>
1ca2cdcc-59cc-4469-8a94-5e180de2a614

$$$$
1ca2cdcc-59cc-4469-8a94-5e180de2a614
  rDOCK(R)          3D
libRbt.so/2013.1/901 2013/11/27
 17 18  0  0  0  0  0  0  0  0999 V2000
   -1.4883   27.1556    6.4514 C   0  0  0  0  0  0
   -0.5590   26.0291    6.0131 C   0  0  0  0  0  0
   -1.1874   24.9109    5.1553 C   0  0  0  0  0  0
   -0.1752   23.8325    4.7092 C   0  0  0  0  0  0
   -0.6915   22.7869    3.7329 C   0  0  0  0  0  0
   -2.3230   24.2766    5.8194 N   0  0  0  0  0  0
   -3.4951   24.1208    5.0725 C   0  0  0  0  0  0
   -3.7145   23.0086    4.3223 N   0  0  0  0  0  0
   -4.8533   22.9220    3.6009 C   0  0  0  0  0  0
   -5.8623   23.8115    3.5157 N   0  0  0  0  0  0
   -5.6077   24.8874    4.2768 C   0  0  0  0  0  0
   -4.4900   25.1192    5.0614 C   0  0  0  0  0  0
   -4.5918   26.3349    5.7136 N   0  0  0  0  0  0
   -5.7450   26.8327    5.3164 C   0  0  0  0  0  0
   -6.3900   25.9939    4.4500 N   0  0  0  0  0  0
   -7.6654   26.2227    3.8255 C   0  0  0  0  0  0
   -2.1266   23.4065    6.3121 H   0  0  0  0  0  0
  1  2  1  0  0  0
  2  3  1  0  0  0
  3  4  1  0  0  0
  4  5  1  0  0  0
  3  6  1  0  0  0
  6  7  1  0  0  0
  7  8  2  0  0  0
  8  9  1  0  0  0
  9 10  2  0  0  0
 10 11  1  0  0  0
 11 12  2  0  0  0
 12 13  1  0  0  0
 13 14  2  0  0  0
 14 15  1  0  0  0
 15 16  1  0  0  0
 12  7  1  0  0  0
 15 11  1  0  0  0
  6 17  1  0  0  0
M  END
>  <CHROM.0>
-59.88758699,67.97666570

>  <CHROM.1>
177.99027639,-173.33739654,131.53556210,89.36475075,-3.63746971,24.89549725
4.82171661,-0.07493911,-0.22332093,0.49046134

>  <Name>
1ca2cdcc-59cc-4469-8a94-5e180de2a614

>  <RI>
2.46551e+07

>  <Rbt.Current_Directory>
/data/work/jku/5V6S/work/40/8dba899c20c42488f2b1a17844994e

>  <Rbt.Executable>
rbdock ($Id: //depot/dev/client3/rdock/2013.1/src/exe/rbdock.cxx#4 $)

>  <Rbt.Library>
libRbt.so (2013.1, Build901 2013/11/27)

>  <Rbt.Parameter_File>
/rDock_2013.1_src/data/scripts/dock.prm

>  <Rbt.Receptor>
docking.prm

>  <SCORE>
-13.4346

>  <SCORE.INTER>
-8.64274

>  <SCORE.INTER.CONST>
1

>  <SCORE.INTER.POLAR>
0

>  <SCORE.INTER.REPUL>
0

>  <SCORE.INTER.ROT>
4

>  <SCORE.INTER.VDW>
-18.0427

>  <SCORE.INTER.norm>
-0.540171

>  <SCORE.INTRA>
-3.2823

>  <SCORE.INTRA.DIHEDRAL>
-2.03683

>  <SCORE.INTRA.DIHEDRAL.0>
4.77808

>  <SCORE.INTRA.POLAR>
0

>  <SCORE.INTRA.POLAR.0>
0

>  <SCORE.INTRA.REPUL>
0

>  <SCORE.INTRA.REPUL.0>
0

>  <SCORE.INTRA.VDW>
-2.26389

>  <SCORE.INTRA.VDW.0>
0.750746

>  <SCORE.INTRA.norm>
-0.205144

>  <SCORE.RESTR>
0

>  <SCORE.RESTR.CAVITY>
0

>  <SCORE.RESTR.norm>
0

>  <SCORE.SYSTEM>
-1.50952

>  <SCORE.SYSTEM.CONST>
0

>  <SCORE.SYSTEM.DIHEDRAL>
0.317081

>  <SCORE.SYSTEM.POLAR>
-0.501933

>  <SCORE.SYSTEM.VDW>
0.0385165

>  <SCORE.SYSTEM.norm>
-0.0943448

>  <SCORE.heavy>
16

>  <SCORE.norm>
-0.83966

>  <enum_code>
B

>  <enum_smi>
CCC(CC)Nc1ncnc2c1ncn2C

>  <sha256>
1c5e02397d5873f6efa1b3fea650d685ce255b2bb069a261985e6139479ba70b

>  <std_smi>
CCC(CC)Nc1ncnc2c1ncn2C

>  <uuid>
1ca2cdcc-59cc-4469-8a94-5e180de2a614

$$$$
1ca2cdcc-59cc-4469-8a94-5e180de2a614
  rDOCK(R)          3D
libRbt.so/2013.1/901 2013/11/27
 17 18  0  0  0  0  0  0  0  0999 V2000
   -7.1710   24.6336    4.0803 C   0  0  0  0  0  0
   -6.5845   26.0367    4.1892 C   0  0  0  0  0  0
   -5.0488   26.1355    4.3032 C   0  0  0  0  0  0
   -4.5200   27.5867    4.2775 C   0  0  0  0  0  0
   -3.0131   27.7524    4.1566 C   0  0  0  0  0  0
   -4.5364   25.4448    5.4836 N   0  0  0  0  0  0
   -3.2608   24.8791    5.3900 C   0  0  0  0  0  0
   -2.2156   25.3650    6.1106 N   0  0  0  0  0  0
   -0.9996   24.7956    5.9623 C   0  0  0  0  0  0
   -0.6490   23.7585    5.1762 N   0  0  0  0  0  0
   -1.7109   23.3063    4.4910 C   0  0  0  0  0  0
   -3.0089   23.7880    4.5340 C   0  0  0  0  0  0
   -3.8321   23.0552    3.6979 N   0  0  0  0  0  0
   -3.0393   22.1571    3.1500 C   0  0  0  0  0  0
   -1.7528   22.2723    3.5991 N   0  0  0  0  0  0
   -0.6333   21.4568    3.2109 C   0  0  0  0  0  0
   -4.6108   25.9484    6.3664 H   0  0  0  0  0  0
  1  2  1  0  0  0
  2  3  1  0  0  0
  3  4  1  0  0  0
  4  5  1  0  0  0
  3  6  1  0  0  0
  6  7  1  0  0  0
  7  8  2  0  0  0
  8  9  1  0  0  0
  9 10  2  0  0  0
 10 11  1  0  0  0
 11 12  2  0  0  0
 12 13  1  0  0  0
 13 14  2  0  0  0
 14 15  1  0  0  0
 15 16  1  0  0  0
 12  7  1  0  0  0
 15 11  1  0  0  0
  6 17  1  0  0  0
M  END
>  <CHROM.0>
-59.88758699,68.89769289

>  <CHROM.1>
174.63639713,-170.34610906,148.75776037,112.53400985,-3.27924971,24.55150645
4.47896459,2.44084537,-0.24801755,0.37362227

>  <Name>
1ca2cdcc-59cc-4469-8a94-5e180de2a614

>  <RI>
2.46551e+07

>  <Rbt.Current_Directory>
/data/work/jku/5V6S/work/40/8dba899c20c42488f2b1a17844994e

>  <Rbt.Executable>
rbdock ($Id: //depot/dev/client3/rdock/2013.1/src/exe/rbdock.cxx#4 $)

>  <Rbt.Library>
libRbt.so (2013.1, Build901 2013/11/27)

>  <Rbt.Parameter_File>
/rDock_2013.1_src/data/scripts/dock.prm

>  <Rbt.Receptor>
docking.prm

>  <SCORE>
-12.417

>  <SCORE.INTER>
-7.27248

>  <SCORE.INTER.CONST>
1

>  <SCORE.INTER.POLAR>
0

>  <SCORE.INTER.REPUL>
0

>  <SCORE.INTER.ROT>
4

>  <SCORE.INTER.VDW>
-16.6725

>  <SCORE.INTER.norm>
-0.45453

>  <SCORE.INTRA>
-3.63086

>  <SCORE.INTRA.DIHEDRAL>
-2.67651

>  <SCORE.INTRA.DIHEDRAL.0>
4.77808

>  <SCORE.INTRA.POLAR>
0

>  <SCORE.INTRA.POLAR.0>
0

>  <SCORE.INTRA.REPUL>
0

>  <SCORE.INTRA.REPUL.0>
0

>  <SCORE.INTRA.VDW>
-2.2926

>  <SCORE.INTRA.VDW.0>
0.750746

>  <SCORE.INTRA.norm>
-0.226929

>  <SCORE.RESTR>
0

>  <SCORE.RESTR.CAVITY>
0

>  <SCORE.RESTR.norm>
0

>  <SCORE.SYSTEM>
-1.51367

>  <SCORE.SYSTEM.CONST>
0

>  <SCORE.SYSTEM.DIHEDRAL>
0.391299

>  <SCORE.SYSTEM.POLAR>
-0.502919

>  <SCORE.SYSTEM.VDW>
0.000607612

>  <SCORE.SYSTEM.norm>
-0.0946042

>  <SCORE.heavy>
16

>  <SCORE.norm>
-0.776063

>  <enum_code>
B

>  <enum_smi>
CCC(CC)Nc1ncnc2c1ncn2C

>  <sha256>
1c5e02397d5873f6efa1b3fea650d685ce255b2bb069a261985e6139479ba70b

>  <std_smi>
CCC(CC)Nc1ncnc2c1ncn2C

>  <uuid>
1ca2cdcc-59cc-4469-8a94-5e180de2a614

$$$$
81c7cd19-d840-4a4c-afe6-be17c93fa6e8
  rDOCK(R)          3D
libRbt.so/2013.1/901 2013/11/27
 17 18  0  0  0  0  0  0  0  0999 V2000
    0.0403   25.5550    5.9296 C   0  0  0  0  0  0
   -1.4430   25.2980    6.1591 C   0  0  0  0  0  0
   -2.3382   25.9817    5.1122 C   0  0  0  0  0  0
   -3.7982   25.5321    5.2986 C   0  0  0  0  0  0
   -4.7289   26.1229    4.2471 C   0  0  0  0  0  0
   -2.2847   27.4253    5.3181 N   0  0  0  0  0  0
   -1.9338   28.2197    4.3776 C   0  0  0  0  0  0
   -1.5361   27.9864    3.0737 N   0  0  0  0  0  0
   -1.1725   28.9458    2.1498 C   0  0  0  0  0  0
   -1.1442   30.2329    2.3415 N   0  0  0  0  0  0
   -1.5298   30.5220    3.6148 C   0  0  0  0  0  0
   -1.9131   29.6588    4.6309 C   0  0  0  0  0  0
   -2.2285   30.3526    5.7754 N   0  0  0  0  0  0
   -2.0397   31.6178    5.4597 C   0  0  0  0  0  0
   -1.6179   31.7674    4.1658 N   0  0  0  0  0  0
   -1.3204   33.0092    3.5032 C   0  0  0  0  0  0
   -1.4863   27.0245    2.7821 H   0  0  0  0  0  0
  1  2  1  0  0  0
  2  3  1  0  0  0
  3  4  1  0  0  0
  4  5  1  0  0  0
  3  6  1  0  0  0
  6  7  2  0  0  0
  7  8  1  0  0  0
  8  9  1  0  0  0
  9 10  2  0  0  0
 10 11  1  0  0  0
 11 12  2  0  0  0
 12 13  1  0  0  0
 13 14  2  0  0  0
 14 15  1  0  0  0
 15 16  1  0  0  0
 12  7  1  0  0  0
 15 11  1  0  0  0
  8 17  1  0  0  0
M  END
>  <CHROM.0>
-59.88758699,68.09502074

>  <CHROM.1>
172.73500549,-177.22276626,123.72210195,-1.94088987,28.60003158,4.45081920
-2.98874473,-1.42678694,-1.66834147

>  <Name>
81c7cd19-d840-4a4c-afe6-be17c93fa6e8

>  <RI>
2.67564e+07

>  <Rbt.Current_Directory>
/data/work/jku/5V6S/work/40/8dba899c20c42488f2b1a17844994e

>  <Rbt.Executable>
rbdock ($Id: //depot/dev/client3/rdock/2013.1/src/exe/rbdock.cxx#4 $)

>  <Rbt.Library>
libRbt.so (2013.1, Build901 2013/11/27)

>  <Rbt.Parameter_File>
/rDock_2013.1_src/data/scripts/dock.prm

>  <Rbt.Receptor>
docking.prm

>  <SCORE>
-11.0814

>  <SCORE.INTER>
-9.51688

>  <SCORE.INTER.CONST>
1

>  <SCORE.INTER.POLAR>
0

>  <SCORE.INTER.REPUL>
0.00764574

>  <SCORE.INTER.ROT>
3

>  <SCORE.INTER.VDW>
-17.9551

>  <SCORE.INTER.norm>
-0.594805

>  <SCORE.INTRA>
-0.0595221

>  <SCORE.INTRA.DIHEDRAL>
-0.202324

>  <SCORE.INTRA.DIHEDRAL.0>
0.476685

>  <SCORE.INTRA.POLAR>
0

>  <SCORE.INTRA.POLAR.0>
0

>  <SCORE.INTRA.REPUL>
0

>  <SCORE.INTRA.REPUL.0>
0

>  <SCORE.INTRA.VDW>
0.0416397

>  <SCORE.INTRA.VDW.0>
-1.10515

>  <SCORE.INTRA.norm>
-0.00372013

>  <SCORE.RESTR>
0.00548578

>  <SCORE.RESTR.CAVITY>
0.00548578

>  <SCORE.RESTR.norm>
0.000342861

>  <SCORE.SYSTEM>
-1.51051

>  <SCORE.SYSTEM.CONST>
0

>  <SCORE.SYSTEM.DIHEDRAL>
0.326193

>  <SCORE.SYSTEM.POLAR>
-0.502099

>  <SCORE.SYSTEM.VDW>
0.0335338

>  <SCORE.SYSTEM.norm>
-0.0944067

>  <SCORE.heavy>
16

>  <SCORE.norm>
-0.692589

>  <enum_code>
T

>  <enum_smi>
CCC(CC)N=c1[nH]cnc2c1ncn2C

>  <sha256>
1c5e02397d5873f6efa1b3fea650d685ce255b2bb069a261985e6139479ba70b

>  <std_smi>
CCC(CC)Nc1ncnc2c1ncn2C

>  <uuid>
81c7cd19-d840-4a4c-afe6-be17c93fa6e8

$$$$
81c7cd19-d840-4a4c-afe6-be17c93fa6e8
  rDOCK(R)          3D
libRbt.so/2013.1/901 2013/11/27
 17 18  0  0  0  0  0  0  0  0999 V2000
    0.0730   32.8424    1.7635 C   0  0  0  0  0  0
   -1.2766   32.5956    1.1027 C   0  0  0  0  0  0
   -2.3163   32.0021    2.0679 C   0  0  0  0  0  0
   -3.6949   31.9520    1.3855 C   0  0  0  0  0  0
   -4.7983   31.4990    2.3333 C   0  0  0  0  0  0
   -1.9283   30.6338    2.3941 N   0  0  0  0  0  0
   -1.9758   30.1967    3.5963 C   0  0  0  0  0  0
   -2.3372   30.8043    4.7850 N   0  0  0  0  0  0
   -2.3383   30.2141    6.0332 C   0  0  0  0  0  0
   -2.0047   28.9865    6.3087 N   0  0  0  0  0  0
   -1.6392   28.3370    5.1693 C   0  0  0  0  0  0
   -1.5923   28.8127    3.8670 C   0  0  0  0  0  0
   -1.1657   27.8349    2.9993 N   0  0  0  0  0  0
   -0.9565   26.7815    3.7626 C   0  0  0  0  0  0
   -1.2293   27.0385    5.0795 N   0  0  0  0  0  0
   -1.1075   26.1117    6.1730 C   0  0  0  0  0  0
   -2.6015   31.7740    4.7342 H   0  0  0  0  0  0
  1  2  1  0  0  0
  2  3  1  0  0  0
  3  4  1  0  0  0
  4  5  1  0  0  0
  3  6  1  0  0  0
  6  7  2  0  0  0
  7  8  1  0  0  0
  8  9  1  0  0  0
  9 10  2  0  0  0
 10 11  1  0  0  0
 11 12  2  0  0  0
 12 13  1  0  0  0
 13 14  2  0  0  0
 14 15  1  0  0  0
 15 16  1  0  0  0
 12  7  1  0  0  0
 15 11  1  0  0  0
  8 17  1  0  0  0
M  END
>  <CHROM.0>
-59.88758699,68.38572990

>  <CHROM.1>
172.68099745,-174.46505783,135.70562185,-1.90169126,29.82494024,3.65881742
-1.76473530,-0.66988264,2.38679723

>  <Name>
81c7cd19-d840-4a4c-afe6-be17c93fa6e8

>  <RI>
2.67564e+07

>  <Rbt.Current_Directory>
/data/work/jku/5V6S/work/40/8dba899c20c42488f2b1a17844994e

>  <Rbt.Executable>
rbdock ($Id: //depot/dev/client3/rdock/2013.1/src/exe/rbdock.cxx#4 $)

>  <Rbt.Library>
libRbt.so (2013.1, Build901 2013/11/27)

>  <Rbt.Parameter_File>
/rDock_2013.1_src/data/scripts/dock.prm

>  <Rbt.Receptor>
docking.prm

>  <SCORE>
-8.91459

>  <SCORE.INTER>
-7.57351

>  <SCORE.INTER.CONST>
1

>  <SCORE.INTER.POLAR>
0

>  <SCORE.INTER.REPUL>
0

>  <SCORE.INTER.ROT>
3

>  <SCORE.INTER.VDW>
-15.9735

>  <SCORE.INTER.norm>
-0.473344

>  <SCORE.INTRA>
0.171287

>  <SCORE.INTRA.DIHEDRAL>
0.251202

>  <SCORE.INTRA.DIHEDRAL.0>
0.476685

>  <SCORE.INTRA.POLAR>
0

>  <SCORE.INTRA.POLAR.0>
0

>  <SCORE.INTRA.REPUL>
0

>  <SCORE.INTRA.REPUL.0>
0

>  <SCORE.INTRA.VDW>
0.0456863

>  <SCORE.INTRA.VDW.0>
-1.10515

>  <SCORE.INTRA.norm>
0.0107054

>  <SCORE.RESTR>
0

>  <SCORE.RESTR.CAVITY>
0

>  <SCORE.RESTR.norm>
0

>  <SCORE.SYSTEM>
-1.51236

>  <SCORE.SYSTEM.CONST>
0

>  <SCORE.SYSTEM.DIHEDRAL>
0.34911

>  <SCORE.SYSTEM.POLAR>
-0.502457

>  <SCORE.SYSTEM.VDW>
0.0214352

>  <SCORE.SYSTEM.norm>
-0.0945228

>  <SCORE.heavy>
16

>  <SCORE.norm>
-0.557162

>  <enum_code>
T

>  <enum_smi>
CCC(CC)N=c1[nH]cnc2c1ncn2C

>  <sha256>
1c5e02397d5873f6efa1b3fea650d685ce255b2bb069a261985e6139479ba70b

>  <std_smi>
CCC(CC)Nc1ncnc2c1ncn2C

>  <uuid>
81c7cd19-d840-4a4c-afe6-be17c93fa6e8

$$$$
81c7cd19-d840-4a4c-afe6-be17c93fa6e8
  rDOCK(R)          3D
libRbt.so/2013.1/901 2013/11/27
 17 18  0  0  0  0  0  0  0  0999 V2000
   -3.5993   33.3570    1.8695 C   0  0  0  0  0  0
   -2.0823   33.4888    1.8485 C   0  0  0  0  0  0
   -1.3657   32.1363    1.6993 C   0  0  0  0  0  0
    0.1455   32.3626    1.5154 C   0  0  0  0  0  0
    0.5115   32.7152    0.0792 C   0  0  0  0  0  0
   -1.5571   31.3649    2.9231 N   0  0  0  0  0  0
   -1.3770   30.0978    2.9467 C   0  0  0  0  0  0
   -1.0178   29.1988    1.9590 N   0  0  0  0  0  0
   -0.8615   27.8361    2.1167 C   0  0  0  0  0  0
   -1.0200   27.1617    3.2186 N   0  0  0  0  0  0
   -1.3747   28.0007    4.2305 C   0  0  0  0  0  0
   -1.5656   29.3745    4.2024 C   0  0  0  0  0  0
   -1.9220   29.8488    5.4429 N   0  0  0  0  0  0
   -1.9473   28.7798    6.2128 C   0  0  0  0  0  0
   -1.6236   27.6420    5.5234 N   0  0  0  0  0  0
   -1.5569   26.3089    6.0598 C   0  0  0  0  0  0
   -0.8810   29.5738    1.0352 H   0  0  0  0  0  0
  1  2  1  0  0  0
  2  3  1  0  0  0
  3  4  1  0  0  0
  4  5  1  0  0  0
  3  6  1  0  0  0
  6  7  2  0  0  0
  7  8  1  0  0  0
  8  9  1  0  0  0
  9 10  2  0  0  0
 10 11  1  0  0  0
 11 12  2  0  0  0
 12 13  1  0  0  0
 13 14  2  0  0  0
 14 15  1  0  0  0
 15 16  1  0  0  0
 12  7  1  0  0  0
 15 11  1  0  0  0
  8 17  1  0  0  0
M  END
>  <CHROM.0>
-59.88758699,68.61457792

>  <CHROM.1>
173.19523727,-81.38019283,161.49745118,-1.38678017,30.01752855,3.20556035
1.49920815,0.93805936,-0.56956128

>  <Name>
81c7cd19-d840-4a4c-afe6-be17c93fa6e8

>  <RI>
2.67564e+07

>  <Rbt.Current_Directory>
/data/work/jku/5V6S/work/40/8dba899c20c42488f2b1a17844994e

>  <Rbt.Executable>
rbdock ($Id: //depot/dev/client3/rdock/2013.1/src/exe/rbdock.cxx#4 $)

>  <Rbt.Library>
libRbt.so (2013.1, Build901 2013/11/27)

>  <Rbt.Parameter_File>
/rDock_2013.1_src/data/scripts/dock.prm

>  <Rbt.Receptor>
docking.prm

>  <SCORE>
-9.81595

>  <SCORE.INTER>
-10.5029

>  <SCORE.INTER.CONST>
1

>  <SCORE.INTER.POLAR>
0

>  <SCORE.INTER.REPUL>
0

>  <SCORE.INTER.ROT>
3

>  <SCORE.INTER.VDW>
-18.9029

>  <SCORE.INTER.norm>
-0.656434

>  <SCORE.INTRA>
2.20024

>  <SCORE.INTRA.DIHEDRAL>
3.26164

>  <SCORE.INTRA.DIHEDRAL.0>
0.476685

>  <SCORE.INTRA.POLAR>
0

>  <SCORE.INTRA.POLAR.0>
0

>  <SCORE.INTRA.REPUL>
0

>  <SCORE.INTRA.REPUL.0>
0

>  <SCORE.INTRA.VDW>
0.569424

>  <SCORE.INTRA.VDW.0>
-1.10515

>  <SCORE.INTRA.norm>
0.137515

>  <SCORE.RESTR>
0

>  <SCORE.RESTR.CAVITY>
0

>  <SCORE.RESTR.norm>
0

>  <SCORE.SYSTEM>
-1.51326

>  <SCORE.SYSTEM.CONST>
0

>  <SCORE.SYSTEM.DIHEDRAL>
0.367681

>  <SCORE.SYSTEM.POLAR>
-0.50269

>  <SCORE.SYSTEM.VDW>
0.0120502

>  <SCORE.SYSTEM.norm>
-0.0945785

>  <SCORE.heavy>
16

>  <SCORE.norm>
-0.613497

>  <enum_code>
T

>  <enum_smi>
CCC(CC)N=c1[nH]cnc2c1ncn2C

>  <sha256>
1c5e02397d5873f6efa1b3fea650d685ce255b2bb069a261985e6139479ba70b

>  <std_smi>
CCC(CC)Nc1ncnc2c1ncn2C

>  <uuid>
81c7cd19-d840-4a4c-afe6-be17c93fa6e8

$$$$
81c7cd19-d840-4a4c-afe6-be17c93fa6e8
  rDOCK(R)          3D
libRbt.so/2013.1/901 2013/11/27
 17 18  0  0  0  0  0  0  0  0999 V2000
    0.1839   25.4984    5.8564 C   0  0  0  0  0  0
   -1.2499   25.1737    6.2537 C   0  0  0  0  0  0
   -2.2897   25.8099    5.3163 C   0  0  0  0  0  0
   -3.6990   25.3119    5.6834 C   0  0  0  0  0  0
   -4.7613   25.7941    4.7035 C   0  0  0  0  0  0
   -2.2648   27.2574    5.4992 N   0  0  0  0  0  0
   -1.9053   28.0421    4.5539 C   0  0  0  0  0  0
   -1.4735   27.7943    3.2636 N   0  0  0  0  0  0
   -1.1044   28.7445    2.3324 C   0  0  0  0  0  0
   -1.1018   30.0349    2.5032 N   0  0  0  0  0  0
   -1.5217   30.3382    3.7623 C   0  0  0  0  0  0
   -1.9142   29.4853    4.7835 C   0  0  0  0  0  0
   -2.2676   30.1923    5.9088 N   0  0  0  0  0  0
   -2.0924   31.4552    5.5764 C   0  0  0  0  0  0
   -1.6431   31.5907    4.2902 N   0  0  0  0  0  0
   -1.3508   32.8264    3.6140 C   0  0  0  0  0  0
   -1.4011   26.8288    2.9893 H   0  0  0  0  0  0
  1  2  1  0  0  0
  2  3  1  0  0  0
  3  4  1  0  0  0
  4  5  1  0  0  0
  3  6  1  0  0  0
  6  7  2  0  0  0
  7  8  1  0  0  0
  8  9  1  0  0  0
  9 10  2  0  0  0
 10 11  1  0  0  0
 11 12  2  0  0  0
 12 13  1  0  0  0
 13 14  2  0  0  0
 14 15  1  0  0  0
 15 16  1  0  0  0
 12  7  1  0  0  0
 15 11  1  0  0  0
  8 17  1  0  0  0
M  END
>  <CHROM.0>
-59.88758699,68.27501239

>  <CHROM.1>
173.67896387,-174.19416511,115.35262238,-1.90667325,28.41986234,4.62277878
-1.74023960,0.63644204,-0.16054820

>  <Name>
81c7cd19-d840-4a4c-afe6-be17c93fa6e8

>  <RI>
2.67564e+07

>  <Rbt.Current_Directory>
/data/work/jku/5V6S/work/40/8dba899c20c42488f2b1a17844994e

>  <Rbt.Executable>
rbdock ($Id: //depot/dev/client3/rdock/2013.1/src/exe/rbdock.cxx#4 $)

>  <Rbt.Library>
libRbt.so (2013.1, Build901 2013/11/27)

>  <Rbt.Parameter_File>
/rDock_2013.1_src/data/scripts/dock.prm

>  <Rbt.Receptor>
docking.prm

>  <SCORE>
-11.4671

>  <SCORE.INTER>
-9.87101

>  <SCORE.INTER.CONST>
1

>  <SCORE.INTER.POLAR>
0

>  <SCORE.INTER.REPUL>
0

>  <SCORE.INTER.ROT>
3

>  <SCORE.INTER.VDW>
-18.271

>  <SCORE.INTER.norm>
-0.616938

>  <SCORE.INTRA>
-0.0843608

>  <SCORE.INTRA.DIHEDRAL>
-0.137402

>  <SCORE.INTRA.DIHEDRAL.0>
0.476685

>  <SCORE.INTRA.POLAR>
0

>  <SCORE.INTRA.POLAR.0>
0

>  <SCORE.INTRA.REPUL>
0

>  <SCORE.INTRA.REPUL.0>
0

>  <SCORE.INTRA.VDW>
-0.0156598

>  <SCORE.INTRA.VDW.0>
-1.10515

>  <SCORE.INTRA.norm>
-0.00527255

>  <SCORE.RESTR>
0

>  <SCORE.RESTR.CAVITY>
0

>  <SCORE.RESTR.norm>
0

>  <SCORE.SYSTEM>
-1.51175

>  <SCORE.SYSTEM.CONST>
0

>  <SCORE.SYSTEM.DIHEDRAL>
0.340293

>  <SCORE.SYSTEM.POLAR>
-0.502329

>  <SCORE.SYSTEM.VDW>
0.0260196

>  <SCORE.SYSTEM.norm>
-0.0944845

>  <SCORE.heavy>
16

>  <SCORE.norm>
-0.716695

>  <enum_code>
T

>  <enum_smi>
CCC(CC)N=c1[nH]cnc2c1ncn2C

>  <sha256>
1c5e02397d5873f6efa1b3fea650d685ce255b2bb069a261985e6139479ba70b

>  <std_smi>
CCC(CC)Nc1ncnc2c1ncn2C

>  <uuid>
81c7cd19-d840-4a4c-afe6-be17c93fa6e8

$$$$
81c7cd19-d840-4a4c-afe6-be17c93fa6e8
  rDOCK(R)          3D
libRbt.so/2013.1/901 2013/11/27
 17 18  0  0  0  0  0  0  0  0999 V2000
   -4.7989   26.2208    5.1845 C   0  0  0  0  0  0
   -3.7286   25.1557    5.3819 C   0  0  0  0  0  0
   -2.3286   25.7489    5.6110 C   0  0  0  0  0  0
   -1.3283   24.6224    5.9260 C   0  0  0  0  0  0
    0.0722   25.1494    6.2119 C   0  0  0  0  0  0
   -1.8899   26.4070    4.3847 N   0  0  0  0  0  0
   -1.8238   27.6826    4.3004 C   0  0  0  0  0  0
   -2.1235   28.6835    5.2066 N   0  0  0  0  0  0
   -2.0125   30.0418    4.9850 C   0  0  0  0  0  0
   -1.6044   30.6162    3.8906 N   0  0  0  0  0  0
   -1.2927   29.6737    2.9590 C   0  0  0  0  0  0
   -1.3619   28.2915    3.0548 C   0  0  0  0  0  0
   -0.9566   27.6945    1.8842 N   0  0  0  0  0  0
   -0.6460   28.6985    1.0894 C   0  0  0  0  0  0
   -0.8332   29.9114    1.6962 N   0  0  0  0  0  0
   -0.5913   31.2040    1.1129 C   0  0  0  0  0  0
   -2.4770   28.3907    6.1021 H   0  0  0  0  0  0
  1  2  1  0  0  0
  2  3  1  0  0  0
  3  4  1  0  0  0
  4  5  1  0  0  0
  3  6  1  0  0  0
  6  7  2  0  0  0
  7  8  1  0  0  0
  8  9  1  0  0  0
  9 10  2  0  0  0
 10 11  1  0  0  0
 11 12  2  0  0  0
 12 13  1  0  0  0
 13 14  2  0  0  0
 14 15  1  0  0  0
 15 16  1  0  0  0
 12  7  1  0  0  0
 15 11  1  0  0  0
  8 17  1  0  0  0
M  END
>  <CHROM.0>
-59.88758699,179.10105530

>  <CHROM.1>
174.97969564,-178.00200120,108.30225651,-1.71398050,27.83693658,3.95752756
1.87123337,-0.67205435,2.67207267

>  <Name>
81c7cd19-d840-4a4c-afe6-be17c93fa6e8

>  <RI>
2.67564e+07

>  <Rbt.Current_Directory>
/data/work/jku/5V6S/work/40/8dba899c20c42488f2b1a17844994e

>  <Rbt.Executable>
rbdock ($Id: //depot/dev/client3/rdock/2013.1/src/exe/rbdock.cxx#4 $)

>  <Rbt.Library>
libRbt.so (2013.1, Build901 2013/11/27)

>  <Rbt.Parameter_File>
/rDock_2013.1_src/data/scripts/dock.prm

>  <Rbt.Receptor>
docking.prm

>  <SCORE>
-9.74111

>  <SCORE.INTER>
-9.50677

>  <SCORE.INTER.CONST>
1

>  <SCORE.INTER.POLAR>
0

>  <SCORE.INTER.REPUL>
0

>  <SCORE.INTER.ROT>
3

>  <SCORE.INTER.VDW>
-17.9068

>  <SCORE.INTER.norm>
-0.594173

>  <SCORE.INTRA>
0.0357214

>  <SCORE.INTRA.DIHEDRAL>
-0.128846

>  <SCORE.INTRA.DIHEDRAL.0>
0.476685

>  <SCORE.INTRA.POLAR>
0

>  <SCORE.INTRA.POLAR.0>
0

>  <SCORE.INTRA.REPUL>
0

>  <SCORE.INTRA.REPUL.0>
0

>  <SCORE.INTRA.VDW>
0.100145

>  <SCORE.INTRA.VDW.0>
-1.10515

>  <SCORE.INTRA.norm>
0.00223259

>  <SCORE.RESTR>
0

>  <SCORE.RESTR.CAVITY>
0

>  <SCORE.RESTR.norm>
0

>  <SCORE.SYSTEM>
-0.270054

>  <SCORE.SYSTEM.CONST>
0

>  <SCORE.SYSTEM.DIHEDRAL>
0.0116184

>  <SCORE.SYSTEM.VDW>
-0.275863

>  <SCORE.SYSTEM.norm>
-0.0168784

>  <SCORE.heavy>
16

>  <SCORE.norm>
-0.608819

>  <enum_code>
T

>  <enum_smi>
CCC(CC)N=c1[nH]cnc2c1ncn2C

>  <sha256>
1c5e02397d5873f6efa1b3fea650d685ce255b2bb069a261985e6139479ba70b

>  <std_smi>
CCC(CC)Nc1ncnc2c1ncn2C

>  <uuid>
81c7cd19-d840-4a4c-afe6-be17c93fa6e8

$$$$
25053e38-b430-4ccf-88ed-3694d39c486b
  rDOCK(R)          3D
libRbt.so/2013.1/901 2013/11/27
 17 18  0  0  0  0  0  0  0  0999 V2000
   -0.7100   24.6524    6.2877 C   0  0  0  0  0  0
   -0.8619   26.1556    6.0891 C   0  0  0  0  0  0
   -1.9514   26.5719    5.0830 C   0  0  0  0  0  0
   -3.3671   26.2743    5.6067 C   0  0  0  0  0  0
   -4.4392   26.5513    4.5593 C   0  0  0  0  0  0
   -1.8558   28.0108    4.8237 N   0  0  0  0  0  0
   -1.4850   28.4035    3.6568 C   0  0  0  0  0  0
   -1.1572   27.5306    2.6198 N   0  0  0  0  0  0
   -0.7889   28.0308    1.4793 C   0  0  0  0  0  0
   -0.6757   29.3647    1.1471 N   0  0  0  0  0  0
   -0.9838   30.2352    2.1213 C   0  0  0  0  0  0
   -1.3865   29.8345    3.3711 C   0  0  0  0  0  0
   -1.6335   30.9363    4.1597 N   0  0  0  0  0  0
   -1.3795   31.9732    3.3838 C   0  0  0  0  0  0
   -0.9786   31.5915    2.1273 N   0  0  0  0  0  0
   -0.6278   32.4740    1.0477 C   0  0  0  0  0  0
   -0.3753   29.6241    0.2151 H   0  0  0  0  0  0
  1  2  1  0  0  0
  2  3  1  0  0  0
  3  4  1  0  0  0
  4  5  1  0  0  0
  3  6  1  0  0  0
  6  7  2  0  0  0
  7  8  1  0  0  0
  8  9  2  0  0  0
  9 10  1  0  0  0
 10 11  1  0  0  0
 11 12  2  0  0  0
 12 13  1  0  0  0
 13 14  2  0  0  0
 14 15  1  0  0  0
 15 16  1  0  0  0
 12  7  1  0  0  0
 15 11  1  0  0  0
 10 17  1  0  0  0
M  END
>  <CHROM.0>
-59.88758699,68.67943275

>  <CHROM.1>
68.89902146,-174.12228741,112.07465337,-1.52651673,28.62977130,3.60653141
-1.89428933,0.99403292,-0.31586421

>  <Name>
25053e38-b430-4ccf-88ed-3694d39c486b

>  <RI>
1.38212e+07

>  <Rbt.Current_Directory>
/data/work/jku/5V6S/work/40/8dba899c20c42488f2b1a17844994e

>  <Rbt.Executable>
rbdock ($Id: //depot/dev/client3/rdock/2013.1/src/exe/rbdock.cxx#4 $)

>  <Rbt.Library>
libRbt.so (2013.1, Build901 2013/11/27)

>  <Rbt.Parameter_File>
/rDock_2013.1_src/data/scripts/dock.prm

>  <Rbt.Receptor>
docking.prm

>  <SCORE>
-15.6838

>  <SCORE.INTER>
-12.9888

>  <SCORE.INTER.CONST>
1

>  <SCORE.INTER.POLAR>
-0.932833

>  <SCORE.INTER.REPUL>
0.000172525

>  <SCORE.INTER.ROT>
3

>  <SCORE.INTER.VDW>
-18.2181

>  <SCORE.INTER.norm>
-0.811803

>  <SCORE.INTRA>
-1.18157

>  <SCORE.INTRA.DIHEDRAL>
-1.13782

>  <SCORE.INTRA.DIHEDRAL.0>
1.70041

>  <SCORE.INTRA.POLAR>
0

>  <SCORE.INTRA.POLAR.0>
0

>  <SCORE.INTRA.REPUL>
0

>  <SCORE.INTRA.REPUL.0>
0

>  <SCORE.INTRA.VDW>
-0.612659

>  <SCORE.INTRA.VDW.0>
0.229827

>  <SCORE.INTRA.norm>
-0.0738479

>  <SCORE.RESTR>
0

>  <SCORE.RESTR.CAVITY>
0

>  <SCORE.RESTR.norm>
0

>  <SCORE.SYSTEM>
-1.51342

>  <SCORE.SYSTEM.CONST>
0

>  <SCORE.SYSTEM.DIHEDRAL>
0.373028

>  <SCORE.SYSTEM.POLAR>
-0.502748

>  <SCORE.SYSTEM.VDW>
0.00941269

>  <SCORE.SYSTEM.norm>
-0.0945886

>  <SCORE.heavy>
16

>  <SCORE.norm>
-0.980239

>  <enum_code>
T

>  <enum_smi>
CCC(CC)N=c1nc[nH]c2c1ncn2C

>  <sha256>
1c5e02397d5873f6efa1b3fea650d685ce255b2bb069a261985e6139479ba70b

>  <std_smi>
CCC(CC)Nc1ncnc2c1ncn2C

>  <uuid>
25053e38-b430-4ccf-88ed-3694d39c486b

$$$$
25053e38-b430-4ccf-88ed-3694d39c486b
  rDOCK(R)          3D
libRbt.so/2013.1/901 2013/11/27
 17 18  0  0  0  0  0  0  0  0999 V2000
   -0.8166   24.6947    6.3800 C   0  0  0  0  0  0
   -0.9780   26.1954    6.1706 C   0  0  0  0  0  0
   -1.9831   26.5946    5.0737 C   0  0  0  0  0  0
   -3.4343   26.2802    5.4762 C   0  0  0  0  0  0
   -4.4193   26.5615    4.3476 C   0  0  0  0  0  0
   -1.8840   28.0338    4.8178 N   0  0  0  0  0  0
   -1.5159   28.4284    3.6507 C   0  0  0  0  0  0
   -1.1943   27.5571    2.6103 N   0  0  0  0  0  0
   -0.8283   28.0591    1.4699 C   0  0  0  0  0  0
   -0.7121   29.3935    1.1406 N   0  0  0  0  0  0
   -1.0143   30.2625    2.1181 C   0  0  0  0  0  0
   -1.4140   29.8598    3.3682 C   0  0  0  0  0  0
   -1.6551   30.9604    4.1604 N   0  0  0  0  0  0
   -1.4005   31.9984    3.3863 C   0  0  0  0  0  0
   -1.0050   31.6187    2.1275 N   0  0  0  0  0  0
   -0.6552   32.5029    1.0489 C   0  0  0  0  0  0
   -0.4141   29.6544    0.2083 H   0  0  0  0  0  0
  1  2  1  0  0  0
  2  3  1  0  0  0
  3  4  1  0  0  0
  4  5  1  0  0  0
  3  6  1  0  0  0
  6  7  2  0  0  0
  7  8  1  0  0  0
  8  9  2  0  0  0
  9 10  1  0  0  0
 10 11  1  0  0  0
 11 12  2  0  0  0
 12 13  1  0  0  0
 13 14  2  0  0  0
 14 15  1  0  0  0
 15 16  1  0  0  0
 12  7  1  0  0  0
 15 11  1  0  0  0
 10 17  1  0  0  0
M  END
>  <CHROM.0>
-59.88758699,69.25711261

>  <CHROM.1>
69.35196989,-175.04489797,117.24440493,-1.56614887,28.65546871,3.59228432
-1.99527091,1.13099849,-0.19979237

>  <Name>
25053e38-b430-4ccf-88ed-3694d39c486b

>  <RI>
1.38212e+07

>  <Rbt.Current_Directory>
/data/work/jku/5V6S/work/40/8dba899c20c42488f2b1a17844994e

>  <Rbt.Executable>
rbdock ($Id: //depot/dev/client3/rdock/2013.1/src/exe/rbdock.cxx#4 $)

>  <Rbt.Library>
libRbt.so (2013.1, Build901 2013/11/27)

>  <Rbt.Parameter_File>
/rDock_2013.1_src/data/scripts/dock.prm

>  <Rbt.Receptor>
docking.prm

>  <SCORE>
-15.7047

>  <SCORE.INTER>
-12.9404

>  <SCORE.INTER.CONST>
1

>  <SCORE.INTER.POLAR>
-0.932243

>  <SCORE.INTER.REPUL>
0

>  <SCORE.INTER.ROT>
3

>  <SCORE.INTER.VDW>
-18.1707

>  <SCORE.INTER.norm>
-0.808773

>  <SCORE.INTRA>
-1.25119

>  <SCORE.INTRA.DIHEDRAL>
-1.23461

>  <SCORE.INTRA.DIHEDRAL.0>
1.70041

>  <SCORE.INTRA.POLAR>
0

>  <SCORE.INTRA.POLAR.0>
0

>  <SCORE.INTRA.REPUL>
0

>  <SCORE.INTRA.REPUL.0>
0

>  <SCORE.INTRA.VDW>
-0.633885

>  <SCORE.INTRA.VDW.0>
0.229827

>  <SCORE.INTRA.norm>
-0.0781995

>  <SCORE.RESTR>
0

>  <SCORE.RESTR.CAVITY>
0

>  <SCORE.RESTR.norm>
0

>  <SCORE.SYSTEM>
-1.5131

>  <SCORE.SYSTEM.CONST>
0

>  <SCORE.SYSTEM.DIHEDRAL>
0.4223

>  <SCORE.SYSTEM.POLAR>
-0.503116

>  <SCORE.SYSTEM.VDW>
-0.0136546

>  <SCORE.SYSTEM.norm>
-0.0945688

>  <SCORE.heavy>
16

>  <SCORE.norm>
-0.981541

>  <enum_code>
T

>  <enum_smi>
CCC(CC)N=c1nc[nH]c2c1ncn2C

>  <sha256>
1c5e02397d5873f6efa1b3fea650d685ce255b2bb069a261985e6139479ba70b

>  <std_smi>
CCC(CC)Nc1ncnc2c1ncn2C

>  <uuid>
25053e38-b430-4ccf-88ed-3694d39c486b

$$$$
25053e38-b430-4ccf-88ed-3694d39c486b
  rDOCK(R)          3D
libRbt.so/2013.1/901 2013/11/27
 17 18  0  0  0  0  0  0  0  0999 V2000
   -0.3614   24.7280    6.3059 C   0  0  0  0  0  0
   -0.7692   26.1927    6.2042 C   0  0  0  0  0  0
   -1.7500   26.5169    5.0616 C   0  0  0  0  0  0
   -3.1953   26.1203    5.4093 C   0  0  0  0  0  0
   -3.4471   24.6300    5.2135 C   0  0  0  0  0  0
   -1.7267   27.9562    4.7886 N   0  0  0  0  0  0
   -1.3787   28.3558    3.6170 C   0  0  0  0  0  0
   -1.0103   27.4904    2.5873 N   0  0  0  0  0  0
   -0.6700   27.9975    1.4411 C   0  0  0  0  0  0
   -0.6241   29.3321    1.0961 N   0  0  0  0  0  0
   -0.9728   30.1955    2.0631 C   0  0  0  0  0  0
   -1.3521   29.7871    3.3177 C   0  0  0  0  0  0
   -1.6518   30.8827    4.0966 N   0  0  0  0  0  0
   -1.4515   31.9235    3.3103 C   0  0  0  0  0  0
   -1.0351   31.5504    2.0563 N   0  0  0  0  0  0
   -0.7313   32.4390    0.9675 C   0  0  0  0  0  0
   -0.3392   29.5974    0.1609 H   0  0  0  0  0  0
  1  2  1  0  0  0
  2  3  1  0  0  0
  3  4  1  0  0  0
  4  5  1  0  0  0
  3  6  1  0  0  0
  6  7  2  0  0  0
  7  8  1  0  0  0
  8  9  2  0  0  0
  9 10  1  0  0  0
 10 11  1  0  0  0
 11 12  2  0  0  0
 12 13  1  0  0  0
 13 14  2  0  0  0
 14 15  1  0  0  0
 15 16  1  0  0  0
 12  7  1  0  0  0
 15 11  1  0  0  0
 10 17  1  0  0  0
M  END
>  <CHROM.0>
-59.88758699,69.33442297

>  <CHROM.1>
78.30296655,-80.08499829,119.59545516,-1.38541535,28.46346500,3.60927766
-2.02857865,1.27019608,-0.13214221

>  <Name>
25053e38-b430-4ccf-88ed-3694d39c486b

>  <RI>
1.38212e+07

>  <Rbt.Current_Directory>
/data/work/jku/5V6S/work/40/8dba899c20c42488f2b1a17844994e

>  <Rbt.Executable>
rbdock ($Id: //depot/dev/client3/rdock/2013.1/src/exe/rbdock.cxx#4 $)

>  <Rbt.Library>
libRbt.so (2013.1, Build901 2013/11/27)

>  <Rbt.Parameter_File>
/rDock_2013.1_src/data/scripts/dock.prm

>  <Rbt.Receptor>
docking.prm

>  <SCORE>
-14.0618

>  <SCORE.INTER>
-13.0167

>  <SCORE.INTER.CONST>
1

>  <SCORE.INTER.POLAR>
-0.93406

>  <SCORE.INTER.REPUL>
9.50812e-05

>  <SCORE.INTER.ROT>
3

>  <SCORE.INTER.VDW>
-18.2413

>  <SCORE.INTER.norm>
-0.813542

>  <SCORE.INTRA>
0.467693

>  <SCORE.INTRA.DIHEDRAL>
1.03381

>  <SCORE.INTRA.DIHEDRAL.0>
1.70041

>  <SCORE.INTRA.POLAR>
0

>  <SCORE.INTRA.POLAR.0>
0

>  <SCORE.INTRA.REPUL>
0

>  <SCORE.INTRA.REPUL.0>
0

>  <SCORE.INTRA.VDW>
-0.0492127

>  <SCORE.INTRA.VDW.0>
0.229827

>  <SCORE.INTRA.norm>
0.0292308

>  <SCORE.RESTR>
0

>  <SCORE.RESTR.CAVITY>
0

>  <SCORE.RESTR.norm>
0

>  <SCORE.SYSTEM>
-1.51282

>  <SCORE.SYSTEM.CONST>
0

>  <SCORE.SYSTEM.DIHEDRAL>
0.429116

>  <SCORE.SYSTEM.POLAR>
-0.503145

>  <SCORE.SYSTEM.VDW>
-0.0166841

>  <SCORE.SYSTEM.norm>
-0.0945512

>  <SCORE.heavy>
16

>  <SCORE.norm>
-0.878862

>  <enum_code>
T

>  <enum_smi>
CCC(CC)N=c1nc[nH]c2c1ncn2C

>  <sha256>
1c5e02397d5873f6efa1b3fea650d685ce255b2bb069a261985e6139479ba70b

>  <std_smi>
CCC(CC)Nc1ncnc2c1ncn2C

>  <uuid>
25053e38-b430-4ccf-88ed-3694d39c486b

$$$$
25053e38-b430-4ccf-88ed-3694d39c486b
  rDOCK(R)          3D
libRbt.so/2013.1/901 2013/11/27
 17 18  0  0  0  0  0  0  0  0999 V2000
   -0.6775   24.6307    6.2577 C   0  0  0  0  0  0
   -0.8259   26.1330    6.0498 C   0  0  0  0  0  0
   -1.9529   26.5478    5.0852 C   0  0  0  0  0  0
   -3.3476   26.2491    5.6618 C   0  0  0  0  0  0
   -4.4576   26.5112    4.6507 C   0  0  0  0  0  0
   -1.8685   27.9867    4.8220 N   0  0  0  0  0  0
   -1.4893   28.3791    3.6578 C   0  0  0  0  0  0
   -1.1422   27.5060    2.6272 N   0  0  0  0  0  0
   -0.7668   28.0061    1.4889 C   0  0  0  0  0  0
   -0.6631   29.3398    1.1533 N   0  0  0  0  0  0
   -0.9898   30.2106    2.1214 C   0  0  0  0  0  0
   -1.4017   29.8100    3.3682 C   0  0  0  0  0  0
   -1.6676   30.9120    4.1504 N   0  0  0  0  0  0
   -1.4155   31.9488    3.3737 C   0  0  0  0  0  0
   -0.9979   31.5668    2.1227 N   0  0  0  0  0  0
   -0.6444   32.4492    1.0439 C   0  0  0  0  0  0
   -0.3555   29.5991    0.2236 H   0  0  0  0  0  0
  1  2  1  0  0  0
  2  3  1  0  0  0
  3  4  1  0  0  0
  4  5  1  0  0  0
  3  6  1  0  0  0
  6  7  2  0  0  0
  7  8  1  0  0  0
  8  9  2  0  0  0
  9 10  1  0  0  0
 10 11  1  0  0  0
 11 12  2  0  0  0
 12 13  1  0  0  0
 13 14  2  0  0  0
 14 15  1  0  0  0
 15 16  1  0  0  0
 12  7  1  0  0  0
 15 11  1  0  0  0
 10 17  1  0  0  0
M  END
>  <CHROM.0>
-59.88758699,68.47063419

>  <CHROM.1>
68.10959379,-173.54925524,109.27264424,-1.52782143,28.60445858,3.61139493
-1.86248734,0.93531545,-0.35417551

>  <Name>
25053e38-b430-4ccf-88ed-3694d39c486b

>  <RI>
1.38212e+07

>  <Rbt.Current_Directory>
/data/work/jku/5V6S/work/40/8dba899c20c42488f2b1a17844994e

>  <Rbt.Executable>
rbdock ($Id: //depot/dev/client3/rdock/2013.1/src/exe/rbdock.cxx#4 $)

>  <Rbt.Library>
libRbt.so (2013.1, Build901 2013/11/27)

>  <Rbt.Parameter_File>
/rDock_2013.1_src/data/scripts/dock.prm

>  <Rbt.Receptor>
docking.prm

>  <SCORE>
-15.6656

>  <SCORE.INTER>
-13.0222

>  <SCORE.INTER.CONST>
1

>  <SCORE.INTER.POLAR>
-0.93171

>  <SCORE.INTER.REPUL>
0

>  <SCORE.INTER.ROT>
3

>  <SCORE.INTER.VDW>
-18.2544

>  <SCORE.INTER.norm>
-0.81389

>  <SCORE.INTRA>
-1.13057

>  <SCORE.INTRA.DIHEDRAL>
-1.07996

>  <SCORE.INTRA.DIHEDRAL.0>
1.70041

>  <SCORE.INTRA.POLAR>
0

>  <SCORE.INTRA.POLAR.0>
0

>  <SCORE.INTRA.REPUL>
0

>  <SCORE.INTRA.REPUL.0>
0

>  <SCORE.INTRA.VDW>
-0.590591

>  <SCORE.INTRA.VDW.0>
0.229827

>  <SCORE.INTRA.norm>
-0.0706608

>  <SCORE.RESTR>
0

>  <SCORE.RESTR.CAVITY>
0

>  <SCORE.RESTR.norm>
0

>  <SCORE.SYSTEM>
-1.51275

>  <SCORE.SYSTEM.CONST>
0

>  <SCORE.SYSTEM.DIHEDRAL>
0.355945

>  <SCORE.SYSTEM.POLAR>
-0.502549

>  <SCORE.SYSTEM.VDW>
0.0179391

>  <SCORE.SYSTEM.norm>
-0.0945471

>  <SCORE.heavy>
16

>  <SCORE.norm>
-0.979097

>  <enum_code>
T

>  <enum_smi>
CCC(CC)N=c1nc[nH]c2c1ncn2C

>  <sha256>
1c5e02397d5873f6efa1b3fea650d685ce255b2bb069a261985e6139479ba70b

>  <std_smi>
CCC(CC)Nc1ncnc2c1ncn2C

>  <uuid>
25053e38-b430-4ccf-88ed-3694d39c486b

$$$$
25053e38-b430-4ccf-88ed-3694d39c486b
  rDOCK(R)          3D
libRbt.so/2013.1/901 2013/11/27
 17 18  0  0  0  0  0  0  0  0999 V2000
   -0.0630   25.7881    5.7650 C   0  0  0  0  0  0
   -1.5132   26.1149    6.1000 C   0  0  0  0  0  0
   -2.3635   26.5951    4.9088 C   0  0  0  0  0  0
   -3.8666   26.3607    5.1387 C   0  0  0  0  0  0
   -4.2579   24.9000    4.9488 C   0  0  0  0  0  0
   -2.1536   28.0305    4.7031 N   0  0  0  0  0  0
   -1.6946   28.4303    3.5705 C   0  0  0  0  0  0
   -1.3740   27.5674    2.5228 N   0  0  0  0  0  0
   -0.9113   28.0737    1.4201 C   0  0  0  0  0  0
   -0.6873   29.4053    1.1390 N   0  0  0  0  0  0
   -0.9850   30.2663    2.1249 C   0  0  0  0  0  0
   -1.4808   29.8583    3.3384 C   0  0  0  0  0  0
   -1.6916   30.9511    4.1499 N   0  0  0  0  0  0
   -1.3245   31.9897    3.4232 C   0  0  0  0  0  0
   -0.8851   31.6179    2.1766 N   0  0  0  0  0  0
   -0.4163   32.5048    1.1466 C   0  0  0  0  0  0
   -0.3203   29.6703    0.2327 H   0  0  0  0  0  0
  1  2  1  0  0  0
  2  3  1  0  0  0
  3  4  1  0  0  0
  4  5  1  0  0  0
  3  6  1  0  0  0
  6  7  2  0  0  0
  7  8  1  0  0  0
  8  9  2  0  0  0
  9 10  1  0  0  0
 10 11  1  0  0  0
 11 12  2  0  0  0
 12 13  1  0  0  0
 13 14  2  0  0  0
 14 15  1  0  0  0
 15 16  1  0  0  0
 12  7  1  0  0  0
 15 11  1  0  0  0
 10 17  1  0  0  0
M  END
>  <CHROM.0>
-59.88758699,68.87201726

>  <CHROM.1>
156.64429307,-76.30813188,120.56306612,-1.60511681,28.61789335,3.54527943
-2.35783129,1.19904658,0.21139057

>  <Name>
25053e38-b430-4ccf-88ed-3694d39c486b

>  <RI>
1.38212e+07

>  <Rbt.Current_Directory>
/data/work/jku/5V6S/work/40/8dba899c20c42488f2b1a17844994e

>  <Rbt.Executable>
rbdock ($Id: //depot/dev/client3/rdock/2013.1/src/exe/rbdock.cxx#4 $)

>  <Rbt.Library>
libRbt.so (2013.1, Build901 2013/11/27)

>  <Rbt.Parameter_File>
/rDock_2013.1_src/data/scripts/dock.prm

>  <Rbt.Receptor>
docking.prm

>  <SCORE>
-13.8002

>  <SCORE.INTER>
-11.9057

>  <SCORE.INTER.CONST>
1

>  <SCORE.INTER.POLAR>
-0.843423

>  <SCORE.INTER.REPUL>
0

>  <SCORE.INTER.ROT>
3

>  <SCORE.INTER.VDW>
-17.438

>  <SCORE.INTER.norm>
-0.744104

>  <SCORE.INTRA>
-0.38085

>  <SCORE.INTRA.DIHEDRAL>
1.24948

>  <SCORE.INTRA.DIHEDRAL.0>
1.70041

>  <SCORE.INTRA.POLAR>
0

>  <SCORE.INTRA.POLAR.0>
0

>  <SCORE.INTRA.REPUL>
0

>  <SCORE.INTRA.REPUL.0>
0

>  <SCORE.INTRA.VDW>
-1.00559

>  <SCORE.INTRA.VDW.0>
0.229827

>  <SCORE.INTRA.norm>
-0.0238031

>  <SCORE.RESTR>
0

>  <SCORE.RESTR.CAVITY>
0

>  <SCORE.RESTR.norm>
0

>  <SCORE.SYSTEM>
-1.51366

>  <SCORE.SYSTEM.CONST>
0

>  <SCORE.SYSTEM.DIHEDRAL>
0.389128

>  <SCORE.SYSTEM.POLAR>
-0.502901

>  <SCORE.SYSTEM.VDW>
0.00163774

>  <SCORE.SYSTEM.norm>
-0.0946039

>  <SCORE.heavy>
16

>  <SCORE.norm>
-0.862511

>  <enum_code>
T

>  <enum_smi>
CCC(CC)N=c1nc[nH]c2c1ncn2C

>  <sha256>
1c5e02397d5873f6efa1b3fea650d685ce255b2bb069a261985e6139479ba70b

>  <std_smi>
CCC(CC)Nc1ncnc2c1ncn2C

>  <uuid>
25053e38-b430-4ccf-88ed-3694d39c486b

$$$$
999a68bf-25f0-462e-9aae-6c255f455ecb
  rDOCK(R)          3D
libRbt.so/2013.1/901 2013/11/27
 19 20  0  0  0  0  0  0  0  0999 V2000
    1.5764   31.8971   -0.0180 C   0  0  0  0  0  0
    0.2470   32.5549    0.3296 C   0  0  0  0  0  0
   -0.6671   31.7575    1.2808 C   0  0  0  0  0  0
   -1.8901   32.5772    1.7298 C   0  0  0  0  0  0
   -1.5904   33.5436    2.8697 C   0  0  0  0  0  0
   -1.1457   30.4869    0.6380 N   0  3  0  0  0  0
   -0.9700   29.3085    1.4551 C   0  0  0  0  0  0
   -0.1301   28.3270    1.0769 N   0  0  0  0  0  0
    0.0235   27.2579    1.9076 C   0  0  0  0  0  0
   -0.5831   27.1005    3.0911 N   0  3  0  0  0  0
   -1.4081   28.1109    3.4669 C   0  0  0  0  0  0
   -1.6286   29.2349    2.6866 C   0  0  0  0  0  0
   -2.4833   30.0981    3.3106 N   0  0  0  0  0  0
   -2.7952   29.5116    4.4515 C   0  0  0  0  0  0
   -2.1659   28.2979    4.5914 N   0  0  0  0  0  0
   -2.2984   27.4158    5.7264 C   0  0  0  0  0  0
   -2.1504   30.5464    0.4371 H   0  0  0  0  0  0
   -0.6757   30.3293   -0.2682 H   0  0  0  0  0  0
   -0.4180   26.2718    3.6656 H   0  0  0  0  0  0
  1  2  1  0  0  0
  2  3  1  0  0  0
  3  4  1  0  0  0
  4  5  1  0  0  0
  3  6  1  0  0  0
  6  7  1  0  0  0
  7  8  2  0  0  0
  8  9  1  0  0  0
  9 10  2  0  0  0
 10 11  1  0  0  0
 11 12  2  0  0  0
 12 13  1  0  0  0
 13 14  2  0  0  0
 14 15  1  0  0  0
 15 16  1  0  0  0
 12  7  1  0  0  0
 15 11  1  0  0  0
  6 17  1  0  0  0
  6 18  1  0  0  0
 10 19  1  0  0  0
M  END
>  <CHROM.0>
-59.88758699,68.37156203

>  <CHROM.1>
172.03664813,-80.97528419,130.34361228,-114.79487052,-1.10767831,29.87801447
2.39744645,-1.14590856,-0.88857221,2.84202168

>  <Name>
999a68bf-25f0-462e-9aae-6c255f455ecb

>  <RI>
2.73503e+07

>  <Rbt.Current_Directory>
/data/work/jku/5V6S/work/40/8dba899c20c42488f2b1a17844994e

>  <Rbt.Executable>
rbdock ($Id: //depot/dev/client3/rdock/2013.1/src/exe/rbdock.cxx#4 $)

>  <Rbt.Library>
libRbt.so (2013.1, Build901 2013/11/27)

>  <Rbt.Parameter_File>
/rDock_2013.1_src/data/scripts/dock.prm

>  <Rbt.Receptor>
docking.prm

>  <SCORE>
-10.0223

>  <SCORE.INTER>
-10.4655

>  <SCORE.INTER.CONST>
1

>  <SCORE.INTER.POLAR>
-1.16927

>  <SCORE.INTER.REPUL>
0.413509

>  <SCORE.INTER.ROT>
4

>  <SCORE.INTER.VDW>
-17.9575

>  <SCORE.INTER.norm>
-0.654091

>  <SCORE.INTRA>
1.95543

>  <SCORE.INTRA.DIHEDRAL>
4.49029

>  <SCORE.INTRA.DIHEDRAL.0>
1.48001

>  <SCORE.INTRA.POLAR>
0.0175314

>  <SCORE.INTRA.POLAR.0>
-0.0175314

>  <SCORE.INTRA.REPUL>
0

>  <SCORE.INTRA.REPUL.0>
0

>  <SCORE.INTRA.VDW>
-0.349327

>  <SCORE.INTRA.VDW.0>
-0.145741

>  <SCORE.INTRA.norm>
0.122214

>  <SCORE.RESTR>
0

>  <SCORE.RESTR.CAVITY>
0

>  <SCORE.RESTR.norm>
0

>  <SCORE.SYSTEM>
-1.51229

>  <SCORE.SYSTEM.CONST>
0

>  <SCORE.SYSTEM.DIHEDRAL>
0.347975

>  <SCORE.SYSTEM.POLAR>
-0.502441

>  <SCORE.SYSTEM.VDW>
0.0220203

>  <SCORE.SYSTEM.norm>
-0.0945183

>  <SCORE.heavy>
16

>  <SCORE.norm>
-0.626395

>  <enum_code>
M

>  <enum_smi>
CCC(CC)[NH2+]c1nc[nH+]c2c1ncn2C

>  <sha256>
1c5e02397d5873f6efa1b3fea650d685ce255b2bb069a261985e6139479ba70b

>  <std_smi>
CCC(CC)Nc1ncnc2c1ncn2C

>  <uuid>
999a68bf-25f0-462e-9aae-6c255f455ecb

$$$$
999a68bf-25f0-462e-9aae-6c255f455ecb
  rDOCK(R)          3D
libRbt.so/2013.1/901 2013/11/27
 19 20  0  0  0  0  0  0  0  0999 V2000
    1.3571   31.7067    0.2465 C   0  0  0  0  0  0
    0.3537   32.7620    0.6940 C   0  0  0  0  0  0
   -0.7379   32.2783    1.6690 C   0  0  0  0  0  0
   -1.6802   33.4189    2.0941 C   0  0  0  0  0  0
   -2.6086   33.0454    3.2438 C   0  0  0  0  0  0
   -1.5572   31.1737    1.0648 N   0  3  0  0  0  0
   -1.1808   29.8501    1.5045 C   0  0  0  0  0  0
   -0.4584   29.0395    0.7091 N   0  0  0  0  0  0
   -0.1003   27.8173    1.1935 C   0  0  0  0  0  0
   -0.3935   27.3490    2.4133 N   0  3  0  0  0  0
   -1.1022   28.1892    3.2100 C   0  0  0  0  0  0
   -1.5127   29.4486    2.8023 C   0  0  0  0  0  0
   -2.1881   30.0860    3.8037 N   0  0  0  0  0  0
   -2.2053   29.2299    4.8085 C   0  0  0  0  0  0
   -1.5575   28.0592    4.4943 N   0  0  0  0  0  0
   -1.4016   26.9291    5.3788 C   0  0  0  0  0  0
   -2.5460   31.2862    1.3154 H   0  0  0  0  0  0
   -1.5128   31.2003    0.0331 H   0  0  0  0  0  0
   -0.0886   26.4208    2.7125 H   0  0  0  0  0  0
  1  2  1  0  0  0
  2  3  1  0  0  0
  3  4  1  0  0  0
  4  5  1  0  0  0
  3  6  1  0  0  0
  6  7  1  0  0  0
  7  8  2  0  0  0
  8  9  1  0  0  0
  9 10  2  0  0  0
 10 11  1  0  0  0
 11 12  2  0  0  0
 12 13  1  0  0  0
 13 14  2  0  0  0
 14 15  1  0  0  0
 15 16  1  0  0  0
 12  7  1  0  0  0
 15 11  1  0  0  0
  6 17  1  0  0  0
  6 18  1  0  0  0
 10 19  1  0  0  0
M  END
>  <CHROM.0>
-59.88758699,69.24568225

>  <CHROM.1>
178.46181786,-169.45269672,99.96616298,-103.15969968,-1.05778878,30.05328740
2.44717774,-1.36143449,-0.94279152,2.78954190

>  <Name>
999a68bf-25f0-462e-9aae-6c255f455ecb

>  <RI>
2.73503e+07

>  <Rbt.Current_Directory>
/data/work/jku/5V6S/work/40/8dba899c20c42488f2b1a17844994e

>  <Rbt.Executable>
rbdock ($Id: //depot/dev/client3/rdock/2013.1/src/exe/rbdock.cxx#4 $)

>  <Rbt.Library>
libRbt.so (2013.1, Build901 2013/11/27)

>  <Rbt.Parameter_File>
/rDock_2013.1_src/data/scripts/dock.prm

>  <Rbt.Receptor>
docking.prm

>  <SCORE>
-7.34446

>  <SCORE.INTER>
-6.58708

>  <SCORE.INTER.CONST>
1

>  <SCORE.INTER.POLAR>
0

>  <SCORE.INTER.REPUL>
0.609542

>  <SCORE.INTER.ROT>
4

>  <SCORE.INTER.VDW>
-19.0348

>  <SCORE.INTER.norm>
-0.411692

>  <SCORE.INTRA>
0.755757

>  <SCORE.INTRA.DIHEDRAL>
2.36664

>  <SCORE.INTRA.DIHEDRAL.0>
1.48001

>  <SCORE.INTRA.POLAR>
0.0175314

>  <SCORE.INTRA.POLAR.0>
-0.0175314

>  <SCORE.INTRA.REPUL>
0

>  <SCORE.INTRA.REPUL.0>
0

>  <SCORE.INTRA.VDW>
-0.487168

>  <SCORE.INTRA.VDW.0>
-0.145741

>  <SCORE.INTRA.norm>
0.0472348

>  <SCORE.RESTR>
0

>  <SCORE.RESTR.CAVITY>
0

>  <SCORE.RESTR.norm>
0

>  <SCORE.SYSTEM>
-1.51314

>  <SCORE.SYSTEM.CONST>
0

>  <SCORE.SYSTEM.DIHEDRAL>
0.421297

>  <SCORE.SYSTEM.POLAR>
-0.503112

>  <SCORE.SYSTEM.VDW>
-0.0132056

>  <SCORE.SYSTEM.norm>
-0.0945711

>  <SCORE.heavy>
16

>  <SCORE.norm>
-0.459029

>  <enum_code>
M

>  <enum_smi>
CCC(CC)[NH2+]c1nc[nH+]c2c1ncn2C

>  <sha256>
1c5e02397d5873f6efa1b3fea650d685ce255b2bb069a261985e6139479ba70b

>  <std_smi>
CCC(CC)Nc1ncnc2c1ncn2C

>  <uuid>
999a68bf-25f0-462e-9aae-6c255f455ecb

$$$$
999a68bf-25f0-462e-9aae-6c255f455ecb
  rDOCK(R)          3D
libRbt.so/2013.1/901 2013/11/27
 19 20  0  0  0  0  0  0  0  0999 V2000
   -1.4759   24.7543    6.3187 C   0  0  0  0  0  0
   -2.6584   25.6648    6.0125 C   0  0  0  0  0  0
   -2.5602   26.4741    4.7042 C   0  0  0  0  0  0
   -3.8582   27.2442    4.4018 C   0  0  0  0  0  0
   -5.0261   26.3427    4.0190 C   0  0  0  0  0  0
   -1.4188   27.4496    4.7518 N   0  3  0  0  0  0
   -1.1104   28.0611    3.4797 C   0  0  0  0  0  0
   -0.7223   27.3116    2.4313 N   0  0  0  0  0  0
   -0.4827   27.9403    1.2464 C   0  0  0  0  0  0
   -0.6153   29.2541    1.0236 N   0  3  0  0  0  0
   -1.0302   29.9908    2.0857 C   0  0  0  0  0  0
   -1.2946   29.4392    3.3293 C   0  0  0  0  0  0
   -1.7134   30.3989    4.2061 N   0  0  0  0  0  0
   -1.6959   31.5261    3.5192 C   0  0  0  0  0  0
   -1.2850   31.3286    2.2226 N   0  0  0  0  0  0
   -1.1624   32.3603    1.2204 C   0  0  0  0  0  0
   -1.6365   28.2209    5.3928 H   0  0  0  0  0  0
   -0.5621   27.0012    5.1151 H   0  0  0  0  0  0
   -0.4212   29.6587    0.1056 H   0  0  0  0  0  0
  1  2  1  0  0  0
  2  3  1  0  0  0
  3  4  1  0  0  0
  4  5  1  0  0  0
  3  6  1  0  0  0
  6  7  1  0  0  0
  7  8  2  0  0  0
  8  9  1  0  0  0
  9 10  2  0  0  0
 10 11  1  0  0  0
 11 12  2  0  0  0
 12 13  1  0  0  0
 13 14  2  0  0  0
 14 15  1  0  0  0
 15 16  1  0  0  0
 12  7  1  0  0  0
 15 11  1  0  0  0
  6 17  1  0  0  0
  6 18  1  0  0  0
 10 19  1  0  0  0
M  END
>  <CHROM.0>
-59.88758699,68.69560454

>  <CHROM.1>
173.78787664,-69.58886154,169.00466969,-61.29289582,-1.77510804,28.43832769
3.45977907,-1.93607096,0.75142096,-0.32843773

>  <Name>
999a68bf-25f0-462e-9aae-6c255f455ecb

>  <RI>
2.73503e+07

>  <Rbt.Current_Directory>
/data/work/jku/5V6S/work/40/8dba899c20c42488f2b1a17844994e

>  <Rbt.Executable>
rbdock ($Id: //depot/dev/client3/rdock/2013.1/src/exe/rbdock.cxx#4 $)

>  <Rbt.Library>
libRbt.so (2013.1, Build901 2013/11/27)

>  <Rbt.Parameter_File>
/rDock_2013.1_src/data/scripts/dock.prm

>  <Rbt.Receptor>
docking.prm

>  <SCORE>
-14.2429

>  <SCORE.INTER>
-12.4382

>  <SCORE.INTER.CONST>
1

>  <SCORE.INTER.POLAR>
-1.24818

>  <SCORE.INTER.REPUL>
0

>  <SCORE.INTER.ROT>
4

>  <SCORE.INTER.VDW>
-17.5944

>  <SCORE.INTER.norm>
-0.777387

>  <SCORE.INTRA>
-0.291299

>  <SCORE.INTRA.DIHEDRAL>
0.173143

>  <SCORE.INTRA.DIHEDRAL.0>
1.48001

>  <SCORE.INTRA.POLAR>
-0.0390909

>  <SCORE.INTRA.POLAR.0>
-0.0175314

>  <SCORE.INTRA.REPUL>
0

>  <SCORE.INTRA.REPUL.0>
0

>  <SCORE.INTRA.VDW>
-0.244962

>  <SCORE.INTRA.VDW.0>
-0.145741

>  <SCORE.INTRA.norm>
-0.0182062

>  <SCORE.RESTR>
0

>  <SCORE.RESTR.CAVITY>
0

>  <SCORE.RESTR.norm>
0

>  <SCORE.SYSTEM>
-1.51345

>  <SCORE.SYSTEM.CONST>
0

>  <SCORE.SYSTEM.DIHEDRAL>
0.374368

>  <SCORE.SYSTEM.POLAR>
-0.502762

>  <SCORE.SYSTEM.VDW>
0.00875652

>  <SCORE.SYSTEM.norm>
-0.0945907

>  <SCORE.heavy>
16

>  <SCORE.norm>
-0.890184

>  <enum_code>
M

>  <enum_smi>
CCC(CC)[NH2+]c1nc[nH+]c2c1ncn2C

>  <sha256>
1c5e02397d5873f6efa1b3fea650d685ce255b2bb069a261985e6139479ba70b

>  <std_smi>
CCC(CC)Nc1ncnc2c1ncn2C

>  <uuid>
999a68bf-25f0-462e-9aae-6c255f455ecb

$$$$
999a68bf-25f0-462e-9aae-6c255f455ecb
  rDOCK(R)          3D
libRbt.so/2013.1/901 2013/11/27
 19 20  0  0  0  0  0  0  0  0999 V2000
   -4.8149   28.5425    4.8449 C   0  0  0  0  0  0
   -4.2256   27.1462    4.6896 C   0  0  0  0  0  0
   -2.8941   26.8949    5.4246 C   0  0  0  0  0  0
   -2.5591   25.3954    5.5178 C   0  0  0  0  0  0
   -1.3673   25.0925    6.4184 C   0  0  0  0  0  0
   -1.7560   27.6038    4.7474 N   0  3  0  0  0  0
   -1.8087   29.0435    4.8545 C   0  0  0  0  0  0
   -2.0370   29.6381    6.0403 N   0  0  0  0  0  0
   -2.0367   30.9999    6.0862 C   0  0  0  0  0  0
   -1.8114   31.8121    5.0455 N   0  3  0  0  0  0
   -1.5598   31.1948    3.8629 C   0  0  0  0  0  0
   -1.5427   29.8164    3.7198 C   0  0  0  0  0  0
   -1.2452   29.4663    2.4337 N   0  0  0  0  0  0
   -1.0934   30.6091    1.7905 C   0  0  0  0  0  0
   -1.2768   31.6904    2.6187 N   0  0  0  0  0  0
   -1.1767   33.0738    2.2185 C   0  0  0  0  0  0
   -0.8619   27.3202    5.1639 H   0  0  0  0  0  0
   -1.7046   27.3521    3.7468 H   0  0  0  0  0  0
   -1.8230   32.8281    5.1534 H   0  0  0  0  0  0
  1  2  1  0  0  0
  2  3  1  0  0  0
  3  4  1  0  0  0
  4  5  1  0  0  0
  3  6  1  0  0  0
  6  7  1  0  0  0
  7  8  2  0  0  0
  8  9  1  0  0  0
  9 10  2  0  0  0
 10 11  1  0  0  0
 11 12  2  0  0  0
 12 13  1  0  0  0
 13 14  2  0  0  0
 14 15  1  0  0  0
 15 16  1  0  0  0
 12  7  1  0  0  0
 15 11  1  0  0  0
  6 17  1  0  0  0
  6 18  1  0  0  0
 10 19  1  0  0  0
M  END
>  <CHROM.0>
-59.88758699,69.67127416

>  <CHROM.1>
165.36854145,-171.13473319,68.83914797,47.79787611,-2.08523111,29.22058904
4.40630150,2.08779922,-1.13781931,-3.09999957

>  <Name>
999a68bf-25f0-462e-9aae-6c255f455ecb

>  <RI>
2.73503e+07

>  <Rbt.Current_Directory>
/data/work/jku/5V6S/work/40/8dba899c20c42488f2b1a17844994e

>  <Rbt.Executable>
rbdock ($Id: //depot/dev/client3/rdock/2013.1/src/exe/rbdock.cxx#4 $)

>  <Rbt.Library>
libRbt.so (2013.1, Build901 2013/11/27)

>  <Rbt.Parameter_File>
/rDock_2013.1_src/data/scripts/dock.prm

>  <Rbt.Receptor>
docking.prm

>  <SCORE>
-14.943

>  <SCORE.INTER>
-13.3562

>  <SCORE.INTER.CONST>
1

>  <SCORE.INTER.POLAR>
-1.34164

>  <SCORE.INTER.REPUL>
0

>  <SCORE.INTER.ROT>
4

>  <SCORE.INTER.VDW>
-18.1946

>  <SCORE.INTER.norm>
-0.83476

>  <SCORE.INTRA>
-0.0759246

>  <SCORE.INTRA.DIHEDRAL>
0.635372

>  <SCORE.INTRA.DIHEDRAL.0>
1.48001

>  <SCORE.INTRA.POLAR>
0.00666075

>  <SCORE.INTRA.POLAR.0>
-0.0175314

>  <SCORE.INTRA.REPUL>
0

>  <SCORE.INTRA.REPUL.0>
0

>  <SCORE.INTRA.VDW>
-0.416257

>  <SCORE.INTRA.VDW.0>
-0.145741

>  <SCORE.INTRA.norm>
-0.00474529

>  <SCORE.RESTR>
0

>  <SCORE.RESTR.CAVITY>
0

>  <SCORE.RESTR.norm>
0

>  <SCORE.SYSTEM>
-1.51095

>  <SCORE.SYSTEM.CONST>
0

>  <SCORE.SYSTEM.DIHEDRAL>
0.459421

>  <SCORE.SYSTEM.POLAR>
-0.503215

>  <SCORE.SYSTEM.VDW>
-0.0297272

>  <SCORE.SYSTEM.norm>
-0.0944342

>  <SCORE.heavy>
16

>  <SCORE.norm>
-0.933939

>  <enum_code>
M

>  <enum_smi>
CCC(CC)[NH2+]c1nc[nH+]c2c1ncn2C

>  <sha256>
1c5e02397d5873f6efa1b3fea650d685ce255b2bb069a261985e6139479ba70b

>  <std_smi>
CCC(CC)Nc1ncnc2c1ncn2C

>  <uuid>
999a68bf-25f0-462e-9aae-6c255f455ecb

$$$$
999a68bf-25f0-462e-9aae-6c255f455ecb
  rDOCK(R)          3D
libRbt.so/2013.1/901 2013/11/27
 19 20  0  0  0  0  0  0  0  0999 V2000
   -0.6967   24.8048    4.4453 C   0  0  0  0  0  0
   -2.1443   25.0771    4.8342 C   0  0  0  0  0  0
   -2.5898   26.5514    4.7694 C   0  0  0  0  0  0
   -4.0674   26.7268    5.1638 C   0  0  0  0  0  0
   -4.6868   28.0192    4.6449 C   0  0  0  0  0  0
   -1.7450   27.4152    5.6620 N   0  3  0  0  0  0
   -1.9503   28.8335    5.4787 C   0  0  0  0  0  0
   -2.3591   29.6081    6.5007 N   0  0  0  0  0  0
   -2.4978   30.9450    6.2774 C   0  0  0  0  0  0
   -2.2456   31.5694    5.1198 N   0  3  0  0  0  0
   -1.8118   30.7760    4.1073 C   0  0  0  0  0  0
   -1.6441   29.4067    4.2404 C   0  0  0  0  0  0
   -1.1802   28.8599    3.0781 N   0  0  0  0  0  0
   -1.0751   29.8724    2.2374 C   0  0  0  0  0  0
   -1.4500   31.0603    2.8181 N   0  0  0  0  0  0
   -1.4452   32.3467    2.1631 C   0  0  0  0  0  0
   -1.9565   27.2223    6.6476 H   0  0  0  0  0  0
   -0.7406   27.2110    5.5338 H   0  0  0  0  0  0
   -2.3685   32.5792    5.0241 H   0  0  0  0  0  0
  1  2  1  0  0  0
  2  3  1  0  0  0
  3  4  1  0  0  0
  4  5  1  0  0  0
  3  6  1  0  0  0
  6  7  1  0  0  0
  7  8  2  0  0  0
  8  9  1  0  0  0
  9 10  2  0  0  0
 10 11  1  0  0  0
 11 12  2  0  0  0
 12 13  1  0  0  0
 13 14  2  0  0  0
 14 15  1  0  0  0
 15 16  1  0  0  0
 12  7  1  0  0  0
 15 11  1  0  0  0
  6 17  1  0  0  0
  6 18  1  0  0  0
 10 19  1  0  0  0
M  END
>  <CHROM.0>
-59.88758699,68.03364798

>  <CHROM.1>
179.38222306,-158.89802268,169.79934025,120.84210149,-2.10499979,28.83651914
4.47547484,-1.76401302,0.98979079,-0.08866815

>  <Name>
999a68bf-25f0-462e-9aae-6c255f455ecb

>  <RI>
2.73503e+07

>  <Rbt.Current_Directory>
/data/work/jku/5V6S/work/40/8dba899c20c42488f2b1a17844994e

>  <Rbt.Executable>
rbdock ($Id: //depot/dev/client3/rdock/2013.1/src/exe/rbdock.cxx#4 $)

>  <Rbt.Library>
libRbt.so (2013.1, Build901 2013/11/27)

>  <Rbt.Parameter_File>
/rDock_2013.1_src/data/scripts/dock.prm

>  <Rbt.Receptor>
docking.prm

>  <SCORE>
-14.0039

>  <SCORE.INTER>
-12.7923

>  <SCORE.INTER.CONST>
1

>  <SCORE.INTER.POLAR>
-1.34058

>  <SCORE.INTER.REPUL>
0

>  <SCORE.INTER.ROT>
4

>  <SCORE.INTER.VDW>
-17.6344

>  <SCORE.INTER.norm>
-0.799521

>  <SCORE.INTRA>
0.112318

>  <SCORE.INTRA.DIHEDRAL>
1.24019

>  <SCORE.INTRA.DIHEDRAL.0>
1.48001

>  <SCORE.INTRA.POLAR>
0.0175314

>  <SCORE.INTRA.POLAR.0>
-0.0175314

>  <SCORE.INTRA.REPUL>
0

>  <SCORE.INTRA.REPUL.0>
0

>  <SCORE.INTRA.VDW>
-0.567384

>  <SCORE.INTRA.VDW.0>
-0.145741

>  <SCORE.INTRA.norm>
0.00701985

>  <SCORE.RESTR>
0.186137

>  <SCORE.RESTR.CAVITY>
0.186137

>  <SCORE.RESTR.norm>
0.0116335

>  <SCORE.SYSTEM>
-1.51001

>  <SCORE.SYSTEM.CONST>
0

>  <SCORE.SYSTEM.DIHEDRAL>
0.321452

>  <SCORE.SYSTEM.POLAR>
-0.502015

>  <SCORE.SYSTEM.VDW>
0.0361134

>  <SCORE.SYSTEM.norm>
-0.0943756

>  <SCORE.heavy>
16

>  <SCORE.norm>
-0.875243

>  <enum_code>
M

>  <enum_smi>
CCC(CC)[NH2+]c1nc[nH+]c2c1ncn2C

>  <sha256>
1c5e02397d5873f6efa1b3fea650d685ce255b2bb069a261985e6139479ba70b

>  <std_smi>
CCC(CC)Nc1ncnc2c1ncn2C

>  <uuid>
999a68bf-25f0-462e-9aae-6c255f455ecb

$$$$
d20d077a-0a5f-4697-94a8-a79dc6c873e6
  rDOCK(R)          3D
libRbt.so/2013.1/901 2013/11/27
 19 20  0  0  0  0  0  0  0  0999 V2000
   -1.6359   26.8421    5.8490 C   0  0  0  0  0  0
   -2.0115   28.2966    6.1003 C   0  0  0  0  0  0
   -2.5785   29.0008    4.8551 C   0  0  0  0  0  0
   -4.0287   28.6149    4.5194 C   0  0  0  0  0  0
   -4.1353   27.2713    3.8069 C   0  0  0  0  0  0
   -2.4075   30.4595    4.9667 N   0  0  0  0  0  0
   -1.7839   31.3519    4.1317 C   0  0  0  0  0  0
   -1.6624   32.6634    4.4225 N   0  3  0  0  0  0
   -1.0597   33.5668    3.6283 C   0  0  0  0  0  0
   -0.4912   33.3033    2.4327 N   0  0  0  0  0  0
   -0.5985   31.9782    2.1079 C   0  0  0  0  0  0
   -1.2093   31.0071    2.8911 C   0  0  0  0  0  0
   -1.0817   29.8270    2.1724 N   0  3  0  0  0  0
   -0.4327   30.0543    1.0180 C   0  0  0  0  0  0
   -0.1358   31.3617    0.9725 N   0  0  0  0  0  0
    0.5716   32.0245   -0.1194 C   0  0  0  0  0  0
   -2.8338   30.8323    5.8151 H   0  0  0  0  0  0
   -2.0505   33.0014    5.2992 H   0  0  0  0  0  0
   -1.4167   28.9040    2.4455 H   0  0  0  0  0  0
  1  2  1  0  0  0
  2  3  1  0  0  0
  3  4  1  0  0  0
  4  5  1  0  0  0
  3  6  1  0  0  0
  6  7  1  0  0  0
  7  8  2  0  0  0
  8  9  1  0  0  0
  9 10  2  0  0  0
 10 11  1  0  0  0
 11 12  2  0  0  0
 12 13  1  0  0  0
 13 14  2  0  0  0
 14 15  1  0  0  0
 15 16  1  0  0  0
 12  7  1  0  0  0
 15 11  1  0  0  0
  6 17  1  0  0  0
  8 18  1  0  0  0
 13 19  1  0  0  0
M  END
>  <CHROM.0>
-59.88758699,68.85298285

>  <CHROM.1>
75.88596677,-79.11943411,123.76217700,-176.64630992,-1.56494359,30.42592716
3.38451573,-2.77593191,1.10231096,0.47655958

>  <Name>
d20d077a-0a5f-4697-94a8-a79dc6c873e6

>  <RI>
3.38179e+07

>  <Rbt.Current_Directory>
/data/work/jku/5V6S/work/40/8dba899c20c42488f2b1a17844994e

>  <Rbt.Executable>
rbdock ($Id: //depot/dev/client3/rdock/2013.1/src/exe/rbdock.cxx#4 $)

>  <Rbt.Library>
libRbt.so (2013.1, Build901 2013/11/27)

>  <Rbt.Parameter_File>
/rDock_2013.1_src/data/scripts/dock.prm

>  <Rbt.Receptor>
docking.prm

>  <SCORE>
-11.1762

>  <SCORE.INTER>
-11.0212

>  <SCORE.INTER.CONST>
1

>  <SCORE.INTER.POLAR>
-0.71189

>  <SCORE.INTER.REPUL>
0

>  <SCORE.INTER.ROT>
4

>  <SCORE.INTER.VDW>
-18.0008

>  <SCORE.INTER.norm>
-0.688825

>  <SCORE.INTRA>
1.35863

>  <SCORE.INTRA.DIHEDRAL>
1.93563

>  <SCORE.INTRA.DIHEDRAL.0>
2.89686

>  <SCORE.INTRA.POLAR>
0

>  <SCORE.INTRA.POLAR.0>
0

>  <SCORE.INTRA.REPUL>
0

>  <SCORE.INTRA.REPUL.0>
0

>  <SCORE.INTRA.VDW>
0.390815

>  <SCORE.INTRA.VDW.0>
-0.965933

>  <SCORE.INTRA.norm>
0.0849145

>  <SCORE.RESTR>
0

>  <SCORE.RESTR.CAVITY>
0

>  <SCORE.RESTR.norm>
0

>  <SCORE.SYSTEM>
-1.51365

>  <SCORE.SYSTEM.CONST>
0

>  <SCORE.SYSTEM.DIHEDRAL>
0.387522

>  <SCORE.SYSTEM.POLAR>
-0.502887

>  <SCORE.SYSTEM.VDW>
0.00240239

>  <SCORE.SYSTEM.norm>
-0.0946033

>  <SCORE.heavy>
16

>  <SCORE.norm>
-0.698513

>  <enum_code>
M

>  <enum_smi>
CCC(CC)Nc1[nH+]cnc2c1[nH+]cn2C

>  <sha256>
1c5e02397d5873f6efa1b3fea650d685ce255b2bb069a261985e6139479ba70b

>  <std_smi>
CCC(CC)Nc1ncnc2c1ncn2C

>  <uuid>
d20d077a-0a5f-4697-94a8-a79dc6c873e6

$$$$
d20d077a-0a5f-4697-94a8-a79dc6c873e6
  rDOCK(R)          3D
libRbt.so/2013.1/901 2013/11/27
 19 20  0  0  0  0  0  0  0  0999 V2000
   -3.5701   33.1828    2.1807 C   0  0  0  0  0  0
   -2.0890   33.4709    1.9733 C   0  0  0  0  0  0
   -1.2386   32.1975    1.8205 C   0  0  0  0  0  0
    0.2360   32.4632    1.4748 C   0  0  0  0  0  0
    0.4615   32.7095   -0.0128 C   0  0  0  0  0  0
   -1.3805   31.3387    3.0087 N   0  0  0  0  0  0
   -1.2742   29.9775    3.1444 C   0  0  0  0  0  0
   -0.9112   29.1676    2.1287 N   0  3  0  0  0  0
   -0.7981   27.8303    2.2242 C   0  0  0  0  0  0
   -1.0282   27.1021    3.3373 N   0  0  0  0  0  0
   -1.3998   27.8964    4.3880 C   0  0  0  0  0  0
   -1.5308   29.2786    4.3417 C   0  0  0  0  0  0
   -1.9217   29.6498    5.6204 N   0  3  0  0  0  0
   -2.0254   28.5657    6.4073 C   0  0  0  0  0  0
   -1.7091   27.4952    5.6633 N   0  0  0  0  0  0
   -1.6968   26.1152    6.1404 C   0  0  0  0  0  0
   -1.5931   31.8772    3.8485 H   0  0  0  0  0  0
   -0.7081   29.5874    1.2255 H   0  0  0  0  0  0
   -2.1115   30.5943    5.9530 H   0  0  0  0  0  0
  1  2  1  0  0  0
  2  3  1  0  0  0
  3  4  1  0  0  0
  4  5  1  0  0  0
  3  6  1  0  0  0
  6  7  1  0  0  0
  7  8  2  0  0  0
  8  9  1  0  0  0
  9 10  2  0  0  0
 10 11  1  0  0  0
 11 12  2  0  0  0
 12 13  1  0  0  0
 13 14  2  0  0  0
 14 15  1  0  0  0
 15 16  1  0  0  0
 12  7  1  0  0  0
 15 11  1  0  0  0
  6 17  1  0  0  0
  8 18  1  0  0  0
 13 19  1  0  0  0
M  END
>  <CHROM.0>
-59.88758699,68.43750654

>  <CHROM.1>
174.38606041,-82.18519273,151.74853196,4.54567191,-1.37111212,29.95253969
3.34307551,1.44959946,0.93755629,-0.53610936

>  <Name>
d20d077a-0a5f-4697-94a8-a79dc6c873e6

>  <RI>
3.38179e+07

>  <Rbt.Current_Directory>
/data/work/jku/5V6S/work/40/8dba899c20c42488f2b1a17844994e

>  <Rbt.Executable>
rbdock ($Id: //depot/dev/client3/rdock/2013.1/src/exe/rbdock.cxx#4 $)

>  <Rbt.Library>
libRbt.so (2013.1, Build901 2013/11/27)

>  <Rbt.Parameter_File>
/rDock_2013.1_src/data/scripts/dock.prm

>  <Rbt.Receptor>
docking.prm

>  <SCORE>
-10.9424

>  <SCORE.INTER>
-10.3493

>  <SCORE.INTER.CONST>
1

>  <SCORE.INTER.POLAR>
0

>  <SCORE.INTER.REPUL>
0

>  <SCORE.INTER.ROT>
4

>  <SCORE.INTER.VDW>
-19.7493

>  <SCORE.INTER.norm>
-0.646829

>  <SCORE.INTRA>
0.919495

>  <SCORE.INTRA.DIHEDRAL>
1.61662

>  <SCORE.INTRA.DIHEDRAL.0>
2.89686

>  <SCORE.INTRA.POLAR>
0

>  <SCORE.INTRA.POLAR.0>
0

>  <SCORE.INTRA.REPUL>
0

>  <SCORE.INTRA.REPUL.0>
0

>  <SCORE.INTRA.VDW>
0.111186

>  <SCORE.INTRA.VDW.0>
-0.965933

>  <SCORE.INTRA.norm>
0.0574685

>  <SCORE.RESTR>
0

>  <SCORE.RESTR.CAVITY>
0

>  <SCORE.RESTR.norm>
0

>  <SCORE.SYSTEM>
-1.51261

>  <SCORE.SYSTEM.CONST>
0

>  <SCORE.SYSTEM.DIHEDRAL>
0.35327

>  <SCORE.SYSTEM.POLAR>
-0.502514

>  <SCORE.SYSTEM.VDW>
0.0193012

>  <SCORE.SYSTEM.norm>
-0.0945381

>  <SCORE.heavy>
16

>  <SCORE.norm>
-0.683899

>  <enum_code>
M

>  <enum_smi>
CCC(CC)Nc1[nH+]cnc2c1[nH+]cn2C

>  <sha256>
1c5e02397d5873f6efa1b3fea650d685ce255b2bb069a261985e6139479ba70b

>  <std_smi>
CCC(CC)Nc1ncnc2c1ncn2C

>  <uuid>
d20d077a-0a5f-4697-94a8-a79dc6c873e6

$$$$
d20d077a-0a5f-4697-94a8-a79dc6c873e6
  rDOCK(R)          3D
libRbt.so/2013.1/901 2013/11/27
 19 20  0  0  0  0  0  0  0  0999 V2000
   -3.9581   32.2417    1.7299 C   0  0  0  0  0  0
   -2.7598   33.1647    1.9083 C   0  0  0  0  0  0
   -1.5389   32.4613    2.5269 C   0  0  0  0  0  0
   -0.2081   33.1989    2.3045 C   0  0  0  0  0  0
    0.3737   32.9670    0.9145 C   0  0  0  0  0  0
   -1.7785   32.1729    3.9513 N   0  0  0  0  0  0
   -1.8040   30.9801    4.6288 C   0  0  0  0  0  0
   -2.0204   30.8985    5.9577 N   0  3  0  0  0  0
   -2.0506   29.7483    6.6551 C   0  0  0  0  0  0
   -1.8707   28.5141    6.1388 N   0  0  0  0  0  0
   -1.6477   28.5629    4.7894 C   0  0  0  0  0  0
   -1.6070   29.7216    4.0244 C   0  0  0  0  0  0
   -1.3563   29.2932    2.7285 N   0  3  0  0  0  0
   -1.2491   27.9543    2.6947 C   0  0  0  0  0  0
   -1.4255   27.5035    3.9458 N   0  0  0  0  0  0
   -1.3863   26.0998    4.3458 C   0  0  0  0  0  0
   -1.9506   33.0211    4.4911 H   0  0  0  0  0  0
   -2.1711   31.7599    6.4760 H   0  0  0  0  0  0
   -1.2609   29.8764    1.8981 H   0  0  0  0  0  0
  1  2  1  0  0  0
  2  3  1  0  0  0
  3  4  1  0  0  0
  4  5  1  0  0  0
  3  6  1  0  0  0
  6  7  1  0  0  0
  7  8  2  0  0  0
  8  9  1  0  0  0
  9 10  2  0  0  0
 10 11  1  0  0  0
 11 12  2  0  0  0
 12 13  1  0  0  0
 13 14  2  0  0  0
 14 15  1  0  0  0
 15 16  1  0  0  0
 12  7  1  0  0  0
 15 11  1  0  0  0
  6 17  1  0  0  0
  8 18  1  0  0  0
 13 19  1  0  0  0
M  END
>  <CHROM.0>
-59.88758699,68.96392951

>  <CHROM.1>
161.10173872,-79.47899289,119.83148693,178.87091162,-1.64441334,30.38077743
3.66688220,-1.50827350,-1.26509246,2.67814901

>  <Name>
d20d077a-0a5f-4697-94a8-a79dc6c873e6

>  <RI>
3.38179e+07

>  <Rbt.Current_Directory>
/data/work/jku/5V6S/work/40/8dba899c20c42488f2b1a17844994e

>  <Rbt.Executable>
rbdock ($Id: //depot/dev/client3/rdock/2013.1/src/exe/rbdock.cxx#4 $)

>  <Rbt.Library>
libRbt.so (2013.1, Build901 2013/11/27)

>  <Rbt.Parameter_File>
/rDock_2013.1_src/data/scripts/dock.prm

>  <Rbt.Receptor>
docking.prm

>  <SCORE>
-14.5327

>  <SCORE.INTER>
-13.6982

>  <SCORE.INTER.CONST>
1

>  <SCORE.INTER.POLAR>
-1.03925

>  <SCORE.INTER.REPUL>
0

>  <SCORE.INTER.ROT>
4

>  <SCORE.INTER.VDW>
-19.5648

>  <SCORE.INTER.norm>
-0.85614

>  <SCORE.INTRA>
0.422377

>  <SCORE.INTRA.DIHEDRAL>
2.36106

>  <SCORE.INTRA.DIHEDRAL.0>
2.89686

>  <SCORE.INTRA.POLAR>
0

>  <SCORE.INTRA.POLAR.0>
0

>  <SCORE.INTRA.REPUL>
0

>  <SCORE.INTRA.REPUL.0>
0

>  <SCORE.INTRA.VDW>
-0.758153

>  <SCORE.INTRA.VDW.0>
-0.965933

>  <SCORE.INTRA.norm>
0.0263986

>  <SCORE.RESTR>
0.256864

>  <SCORE.RESTR.CAVITY>
0.256864

>  <SCORE.RESTR.norm>
0.016054

>  <SCORE.SYSTEM>
-1.51365

>  <SCORE.SYSTEM.CONST>
0

>  <SCORE.SYSTEM.DIHEDRAL>
0.396927

>  <SCORE.SYSTEM.POLAR>
-0.502963

>  <SCORE.SYSTEM.VDW>
-0.00204287

>  <SCORE.SYSTEM.norm>
-0.0946034

>  <SCORE.heavy>
16

>  <SCORE.norm>
-0.908291

>  <enum_code>
M

>  <enum_smi>
CCC(CC)Nc1[nH+]cnc2c1[nH+]cn2C

>  <sha256>
1c5e02397d5873f6efa1b3fea650d685ce255b2bb069a261985e6139479ba70b

>  <std_smi>
CCC(CC)Nc1ncnc2c1ncn2C

>  <uuid>
d20d077a-0a5f-4697-94a8-a79dc6c873e6

$$$$
d20d077a-0a5f-4697-94a8-a79dc6c873e6
  rDOCK(R)          3D
libRbt.so/2013.1/901 2013/11/27
 19 20  0  0  0  0  0  0  0  0999 V2000
   -0.5483   24.7074    5.9544 C   0  0  0  0  0  0
   -1.2135   25.9980    6.4146 C   0  0  0  0  0  0
   -1.7471   26.8535    5.2522 C   0  0  0  0  0  0
   -2.9680   26.2518    4.5367 C   0  0  0  0  0  0
   -4.2069   26.1949    5.4234 C   0  0  0  0  0  0
   -1.9961   28.2339    5.7017 N   0  0  0  0  0  0
   -1.8573   29.4274    5.0392 C   0  0  0  0  0  0
   -2.0903   30.6200    5.6246 N   0  3  0  0  0  0
   -1.9663   31.8087    5.0068 C   0  0  0  0  0  0
   -1.5947   31.9888    3.7217 N   0  0  0  0  0  0
   -1.3511   30.7950    3.0984 C   0  0  0  0  0  0
   -1.4640   29.5433    3.6902 C   0  0  0  0  0  0
   -1.1251   28.6383    2.6943 N   0  3  0  0  0  0
   -0.8216   29.2895    1.5589 C   0  0  0  0  0  0
   -0.9571   30.6025    1.7980 N   0  0  0  0  0  0
   -0.7210   31.6624    0.8219 C   0  0  0  0  0  0
   -2.3229   28.2702    6.6673 H   0  0  0  0  0  0
   -2.3807   30.6310    6.5988 H   0  0  0  0  0  0
   -1.0980   27.6225    2.7730 H   0  0  0  0  0  0
  1  2  1  0  0  0
  2  3  1  0  0  0
  3  4  1  0  0  0
  4  5  1  0  0  0
  3  6  1  0  0  0
  6  7  1  0  0  0
  7  8  2  0  0  0
  8  9  1  0  0  0
  9 10  2  0  0  0
 10 11  1  0  0  0
 11 12  2  0  0  0
 12 13  1  0  0  0
 13 14  2  0  0  0
 14 15  1  0  0  0
 15 16  1  0  0  0
 12  7  1  0  0  0
 15 11  1  0  0  0
  6 17  1  0  0  0
  8 18  1  0  0  0
 13 19  1  0  0  0
M  END
>  <CHROM.0>
-59.88758699,68.95133865

>  <CHROM.1>
69.99862948,66.32202444,145.45179817,-177.67978110,-1.67521270,28.85986692
4.16987016,-1.97665348,1.21675815,-0.16908322

>  <Name>
d20d077a-0a5f-4697-94a8-a79dc6c873e6

>  <RI>
3.38179e+07

>  <Rbt.Current_Directory>
/data/work/jku/5V6S/work/40/8dba899c20c42488f2b1a17844994e

>  <Rbt.Executable>
rbdock ($Id: //depot/dev/client3/rdock/2013.1/src/exe/rbdock.cxx#4 $)

>  <Rbt.Library>
libRbt.so (2013.1, Build901 2013/11/27)

>  <Rbt.Parameter_File>
/rDock_2013.1_src/data/scripts/dock.prm

>  <Rbt.Receptor>
docking.prm

>  <SCORE>
-10.2512

>  <SCORE.INTER>
-9.56093

>  <SCORE.INTER.CONST>
1

>  <SCORE.INTER.POLAR>
0

>  <SCORE.INTER.REPUL>
0.00149911

>  <SCORE.INTER.ROT>
4

>  <SCORE.INTER.VDW>
-18.9684

>  <SCORE.INTER.norm>
-0.597558

>  <SCORE.INTRA>
0.823421

>  <SCORE.INTRA.DIHEDRAL>
0.271625

>  <SCORE.INTRA.DIHEDRAL.0>
2.89686

>  <SCORE.INTRA.POLAR>
0

>  <SCORE.INTRA.POLAR.0>
0

>  <SCORE.INTRA.REPUL>
0

>  <SCORE.INTRA.REPUL.0>
0

>  <SCORE.INTRA.VDW>
0.687608

>  <SCORE.INTRA.VDW.0>
-0.965933

>  <SCORE.INTRA.norm>
0.0514638

>  <SCORE.RESTR>
0

>  <SCORE.RESTR.CAVITY>
0

>  <SCORE.RESTR.norm>
0

>  <SCORE.SYSTEM>
-1.51366

>  <SCORE.SYSTEM.CONST>
0

>  <SCORE.SYSTEM.DIHEDRAL>
0.395854

>  <SCORE.SYSTEM.POLAR>
-0.502955

>  <SCORE.SYSTEM.VDW>
-0.00153982

>  <SCORE.SYSTEM.norm>
-0.0946038

>  <SCORE.heavy>
16

>  <SCORE.norm>
-0.640698

>  <enum_code>
M

>  <enum_smi>
CCC(CC)Nc1[nH+]cnc2c1[nH+]cn2C

>  <sha256>
1c5e02397d5873f6efa1b3fea650d685ce255b2bb069a261985e6139479ba70b

>  <std_smi>
CCC(CC)Nc1ncnc2c1ncn2C

>  <uuid>
d20d077a-0a5f-4697-94a8-a79dc6c873e6

$$$$
d20d077a-0a5f-4697-94a8-a79dc6c873e6
  rDOCK(R)          3D
libRbt.so/2013.1/901 2013/11/27
 19 20  0  0  0  0  0  0  0  0999 V2000
   -5.3274   26.3630    4.3815 C   0  0  0  0  0  0
   -4.2941   27.3370    3.8309 C   0  0  0  0  0  0
   -3.1520   27.6329    4.8189 C   0  0  0  0  0  0
   -2.1733   26.4637    5.0179 C   0  0  0  0  0  0
   -1.2042   26.6913    6.1726 C   0  0  0  0  0  0
   -2.4571   28.8763    4.4442 N   0  0  0  0  0  0
   -1.7545   29.1999    3.3109 C   0  0  0  0  0  0
   -1.3640   28.2800    2.4051 N   0  3  0  0  0  0
   -0.6734   28.5597    1.2848 C   0  0  0  0  0  0
   -0.2695   29.7888    0.8998 N   0  0  0  0  0  0
   -0.6506   30.7465    1.8001 C   0  0  0  0  0  0
   -1.3632   30.5106    2.9689 C   0  0  0  0  0  0
   -1.5201   31.7576    3.5571 N   0  3  0  0  0  0
   -0.9413   32.7044    2.7996 C   0  0  0  0  0  0
   -0.4102   32.0957    1.7286 N   0  0  0  0  0  0
    0.3126   32.7685    0.6531 C   0  0  0  0  0  0
   -2.5301   29.5904    5.1689 H   0  0  0  0  0  0
   -1.6026   27.3061    2.5725 H   0  0  0  0  0  0
   -1.9974   31.9660    4.4332 H   0  0  0  0  0  0
  1  2  1  0  0  0
  2  3  1  0  0  0
  3  4  1  0  0  0
  4  5  1  0  0  0
  3  6  1  0  0  0
  6  7  1  0  0  0
  7  8  2  0  0  0
  8  9  1  0  0  0
  9 10  2  0  0  0
 10 11  1  0  0  0
 11 12  2  0  0  0
 12 13  1  0  0  0
 13 14  2  0  0  0
 14 15  1  0  0  0
 15 16  1  0  0  0
 12  7  1  0  0  0
 15 11  1  0  0  0
  6 17  1  0  0  0
  8 18  1  0  0  0
 13 19  1  0  0  0
M  END
>  <CHROM.0>
-59.88758699,68.83666880

>  <CHROM.1>
71.74352899,-169.90415487,-62.16911579,-13.22172565,-1.72633367,29.32855674
3.16496328,2.51940881,-0.99003357,-2.84707542

>  <Name>
d20d077a-0a5f-4697-94a8-a79dc6c873e6

>  <RI>
3.38179e+07

>  <Rbt.Current_Directory>
/data/work/jku/5V6S/work/40/8dba899c20c42488f2b1a17844994e

>  <Rbt.Executable>
rbdock ($Id: //depot/dev/client3/rdock/2013.1/src/exe/rbdock.cxx#4 $)

>  <Rbt.Library>
libRbt.so (2013.1, Build901 2013/11/27)

>  <Rbt.Parameter_File>
/rDock_2013.1_src/data/scripts/dock.prm

>  <Rbt.Receptor>
docking.prm

>  <SCORE>
-8.72344

>  <SCORE.INTER>
-7.67083

>  <SCORE.INTER.CONST>
1

>  <SCORE.INTER.POLAR>
0

>  <SCORE.INTER.REPUL>
0.168367

>  <SCORE.INTER.ROT>
4

>  <SCORE.INTER.VDW>
-17.9127

>  <SCORE.INTER.norm>
-0.479427

>  <SCORE.INTRA>
0.461033

>  <SCORE.INTRA.DIHEDRAL>
1.29451

>  <SCORE.INTRA.DIHEDRAL.0>
2.89686

>  <SCORE.INTRA.POLAR>
0

>  <SCORE.INTRA.POLAR.0>
0

>  <SCORE.INTRA.REPUL>
0

>  <SCORE.INTRA.REPUL.0>
0

>  <SCORE.INTRA.VDW>
-0.18622

>  <SCORE.INTRA.VDW.0>
-0.965933

>  <SCORE.INTRA.norm>
0.0288146

>  <SCORE.RESTR>
0

>  <SCORE.RESTR.CAVITY>
0

>  <SCORE.RESTR.norm>
0

>  <SCORE.SYSTEM>
-1.51364

>  <SCORE.SYSTEM.CONST>
0

>  <SCORE.SYSTEM.DIHEDRAL>
0.386148

>  <SCORE.SYSTEM.POLAR>
-0.502875

>  <SCORE.SYSTEM.VDW>
0.00305842

>  <SCORE.SYSTEM.norm>
-0.0946027

>  <SCORE.heavy>
16

>  <SCORE.norm>
-0.545215

>  <enum_code>
M

>  <enum_smi>
CCC(CC)Nc1[nH+]cnc2c1[nH+]cn2C

>  <sha256>
1c5e02397d5873f6efa1b3fea650d685ce255b2bb069a261985e6139479ba70b

>  <std_smi>
CCC(CC)Nc1ncnc2c1ncn2C

>  <uuid>
d20d077a-0a5f-4697-94a8-a79dc6c873e6

$$$$
9f4af7ef-1188-4657-9b71-87f64c7ba5be
  rDOCK(R)          3D
libRbt.so/2013.1/901 2013/11/27
 18 19  0  0  0  0  0  0  0  0999 V2000
    0.4024   24.1735    3.9238 C   0  0  0  0  0  0
    0.1077   25.5556    4.4931 C   0  0  0  0  0  0
   -1.3929   25.9122    4.4291 C   0  0  0  0  0  0
   -2.2526   25.0394    5.3687 C   0  0  0  0  0  0
   -3.7482   25.2872    5.2533 C   0  0  0  0  0  0
   -1.5889   27.3086    4.8523 N   0  0  0  0  0  0
   -1.4295   28.3139    3.9053 C   0  0  0  0  0  0
   -1.1145   28.0233    2.6052 N   0  0  0  0  0  0
   -0.9633   29.0147    1.6864 C   0  0  0  0  0  0
   -1.0922   30.3399    1.8926 N   0  0  0  0  0  0
   -1.4203   30.6027    3.1941 C   0  0  0  0  0  0
   -1.5964   29.6712    4.2031 C   0  0  0  0  0  0
   -1.9383   30.3954    5.3331 N   0  3  0  0  0  0
   -1.9668   31.7003    5.0415 C   0  0  0  0  0  0
   -1.6450   31.8460    3.7489 N   0  0  0  0  0  0
   -1.5604   33.1005    3.0230 C   0  0  0  0  0  0
   -1.2371   27.5165    5.7788 H   0  0  0  0  0  0
   -2.1709   29.9887    6.2343 H   0  0  0  0  0  0
  1  2  1  0  0  0
  2  3  1  0  0  0
  3  4  1  0  0  0
  4  5  1  0  0  0
  3  6  1  0  0  0
  6  7  1  0  0  0
  7  8  2  0  0  0
  8  9  1  0  0  0
  9 10  2  0  0  0
 10 11  1  0  0  0
 11 12  2  0  0  0
 12 13  1  0  0  0
 13 14  2  0  0  0
 14 15  1  0  0  0
 15 16  1  0  0  0
 12  7  1  0  0  0
 15 11  1  0  0  0
  6 17  1  0  0  0
 13 18  1  0  0  0
M  END
>  <CHROM.0>
-59.88758699,68.67559995

>  <CHROM.1>
67.59890261,-175.46594028,84.73945762,0.79948459,-1.45405027,28.47306292
3.96302099,-1.50380441,0.92424844,-0.22964845

>  <Name>
9f4af7ef-1188-4657-9b71-87f64c7ba5be

>  <RI>
2.07598e+07

>  <Rbt.Current_Directory>
/data/work/jku/5V6S/work/40/8dba899c20c42488f2b1a17844994e

>  <Rbt.Executable>
rbdock ($Id: //depot/dev/client3/rdock/2013.1/src/exe/rbdock.cxx#4 $)

>  <Rbt.Library>
libRbt.so (2013.1, Build901 2013/11/27)

>  <Rbt.Parameter_File>
/rDock_2013.1_src/data/scripts/dock.prm

>  <Rbt.Receptor>
docking.prm

>  <SCORE>
-13.3404

>  <SCORE.INTER>
-9.78173

>  <SCORE.INTER.CONST>
1

>  <SCORE.INTER.POLAR>
0

>  <SCORE.INTER.REPUL>
0.00890026

>  <SCORE.INTER.ROT>
4

>  <SCORE.INTER.VDW>
-19.2262

>  <SCORE.INTER.norm>
-0.611358

>  <SCORE.INTRA>
-2.04527

>  <SCORE.INTRA.DIHEDRAL>
-4.08382

>  <SCORE.INTRA.DIHEDRAL.0>
5.33743

>  <SCORE.INTRA.POLAR>
0

>  <SCORE.INTRA.POLAR.0>
0

>  <SCORE.INTRA.REPUL>
0

>  <SCORE.INTRA.REPUL.0>
0

>  <SCORE.INTRA.VDW>
-0.00335934

>  <SCORE.INTRA.VDW.0>
-0.15401

>  <SCORE.INTRA.norm>
-0.127829

>  <SCORE.RESTR>
0

>  <SCORE.RESTR.CAVITY>
0

>  <SCORE.RESTR.norm>
0

>  <SCORE.SYSTEM>
-1.51341

>  <SCORE.SYSTEM.CONST>
0

>  <SCORE.SYSTEM.DIHEDRAL>
0.372711

>  <SCORE.SYSTEM.POLAR>
-0.502745

>  <SCORE.SYSTEM.VDW>
0.00956829

>  <SCORE.SYSTEM.norm>
-0.0945881

>  <SCORE.heavy>
16

>  <SCORE.norm>
-0.833775

>  <enum_code>
M

>  <enum_smi>
CCC(CC)Nc1ncnc2c1[nH+]cn2C

>  <sha256>
1c5e02397d5873f6efa1b3fea650d685ce255b2bb069a261985e6139479ba70b

>  <std_smi>
CCC(CC)Nc1ncnc2c1ncn2C

>  <uuid>
9f4af7ef-1188-4657-9b71-87f64c7ba5be

$$$$
9f4af7ef-1188-4657-9b71-87f64c7ba5be
  rDOCK(R)          3D
libRbt.so/2013.1/901 2013/11/27
 18 19  0  0  0  0  0  0  0  0999 V2000
    0.2142   24.0695    4.0783 C   0  0  0  0  0  0
   -0.1322   25.3034    4.9021 C   0  0  0  0  0  0
   -1.6289   25.6709    4.8133 C   0  0  0  0  0  0
   -2.5113   24.7993    5.7327 C   0  0  0  0  0  0
   -2.8096   23.4149    5.1794 C   0  0  0  0  0  0
   -1.8227   27.0664    5.2405 N   0  0  0  0  0  0
   -1.6020   28.0776    4.3123 C   0  0  0  0  0  0
   -1.2722   27.7928    3.0147 N   0  0  0  0  0  0
   -1.0607   28.7900    2.1143 C   0  0  0  0  0  0
   -1.1388   30.1163    2.3379 N   0  0  0  0  0  0
   -1.4829   30.3740    3.6363 C   0  0  0  0  0  0
   -1.7186   29.4363    4.6272 C   0  0  0  0  0  0
   -2.0537   30.1579    5.7609 N   0  3  0  0  0  0
   -2.0220   31.4669    5.4886 C   0  0  0  0  0  0
   -1.6674   31.6175    4.2052 N   0  0  0  0  0  0
   -1.5157   32.8776    3.5002 C   0  0  0  0  0  0
   -1.5126   27.2600    6.1849 H   0  0  0  0  0  0
   -2.3219   29.7485    6.6509 H   0  0  0  0  0  0
  1  2  1  0  0  0
  2  3  1  0  0  0
  3  4  1  0  0  0
  4  5  1  0  0  0
  3  6  1  0  0  0
  6  7  1  0  0  0
  7  8  2  0  0  0
  8  9  1  0  0  0
  9 10  2  0  0  0
 10 11  1  0  0  0
 11 12  2  0  0  0
 12 13  1  0  0  0
 13 14  2  0  0  0
 14 15  1  0  0  0
 15 16  1  0  0  0
 12  7  1  0  0  0
 15 11  1  0  0  0
  6 17  1  0  0  0
 13 18  1  0  0  0
M  END
>  <CHROM.0>
-59.88758699,68.98100457

>  <CHROM.1>
79.69178990,-78.80448033,82.91555795,2.96417031,-1.51254731,28.13597901,4.33315140
-1.52546102,1.07324473,-0.17668756

>  <Name>
9f4af7ef-1188-4657-9b71-87f64c7ba5be

>  <RI>
2.07598e+07

>  <Rbt.Current_Directory>
/data/work/jku/5V6S/work/40/8dba899c20c42488f2b1a17844994e

>  <Rbt.Executable>
rbdock ($Id: //depot/dev/client3/rdock/2013.1/src/exe/rbdock.cxx#4 $)

>  <Rbt.Library>
libRbt.so (2013.1, Build901 2013/11/27)

>  <Rbt.Parameter_File>
/rDock_2013.1_src/data/scripts/dock.prm

>  <Rbt.Receptor>
docking.prm

>  <SCORE>
-12.0976

>  <SCORE.INTER>
-9.99567

>  <SCORE.INTER.CONST>
1

>  <SCORE.INTER.POLAR>
0

>  <SCORE.INTER.REPUL>
0.00981579

>  <SCORE.INTER.ROT>
4

>  <SCORE.INTER.VDW>
-19.4448

>  <SCORE.INTER.norm>
-0.62473

>  <SCORE.INTRA>
-0.58833

>  <SCORE.INTRA.DIHEDRAL>
-1.7131

>  <SCORE.INTRA.DIHEDRAL.0>
5.33743

>  <SCORE.INTRA.POLAR>
0

>  <SCORE.INTRA.POLAR.0>
0

>  <SCORE.INTRA.REPUL>
0

>  <SCORE.INTRA.REPUL.0>
0

>  <SCORE.INTRA.VDW>
0.26822

>  <SCORE.INTRA.VDW.0>
-0.15401

>  <SCORE.INTRA.norm>
-0.0367706

>  <SCORE.RESTR>
0

>  <SCORE.RESTR.CAVITY>
0

>  <SCORE.RESTR.norm>
0

>  <SCORE.SYSTEM>
-1.51364

>  <SCORE.SYSTEM.CONST>
0

>  <SCORE.SYSTEM.DIHEDRAL>
0.398384

>  <SCORE.SYSTEM.POLAR>
-0.502974

>  <SCORE.SYSTEM.VDW>
-0.00272451

>  <SCORE.SYSTEM.norm>
-0.0946028

>  <SCORE.heavy>
16

>  <SCORE.norm>
-0.756103

>  <enum_code>
M

>  <enum_smi>
CCC(CC)Nc1ncnc2c1[nH+]cn2C

>  <sha256>
1c5e02397d5873f6efa1b3fea650d685ce255b2bb069a261985e6139479ba70b

>  <std_smi>
CCC(CC)Nc1ncnc2c1ncn2C

>  <uuid>
9f4af7ef-1188-4657-9b71-87f64c7ba5be

$$$$
9f4af7ef-1188-4657-9b71-87f64c7ba5be
  rDOCK(R)          3D
libRbt.so/2013.1/901 2013/11/27
 18 19  0  0  0  0  0  0  0  0999 V2000
   -1.8283   27.9539    3.7920 C   0  0  0  0  0  0
   -2.7564   27.0852    4.6317 C   0  0  0  0  0  0
   -2.0884   25.7661    5.0755 C   0  0  0  0  0  0
   -0.9796   25.9850    6.1273 C   0  0  0  0  0  0
   -0.1859   24.7330    6.4650 C   0  0  0  0  0  0
   -3.0925   24.8866    5.6967 N   0  0  0  0  0  0
   -3.6832   23.9022    4.9125 C   0  0  0  0  0  0
   -3.2220   22.6135    4.9214 N   0  0  0  0  0  0
   -3.8090   21.6578    4.1520 C   0  0  0  0  0  0
   -4.8597   21.8143    3.3234 N   0  0  0  0  0  0
   -5.3100   23.1056    3.3431 C   0  0  0  0  0  0
   -4.7858   24.1492    4.0866 C   0  0  0  0  0  0
   -5.5740   25.2518    3.8020 N   0  3  0  0  0  0
   -6.5279   24.9115    2.9284 C   0  0  0  0  0  0
   -6.3770   23.6138    2.6307 N   0  0  0  0  0  0
   -7.2050   22.8411    1.7222 C   0  0  0  0  0  0
   -3.7057   25.3533    6.3537 H   0  0  0  0  0  0
   -5.4649   26.1681    4.2264 H   0  0  0  0  0  0
  1  2  1  0  0  0
  2  3  1  0  0  0
  3  4  1  0  0  0
  4  5  1  0  0  0
  3  6  1  0  0  0
  6  7  1  0  0  0
  7  8  2  0  0  0
  8  9  1  0  0  0
  9 10  2  0  0  0
 10 11  1  0  0  0
 11 12  2  0  0  0
 12 13  1  0  0  0
 13 14  2  0  0  0
 14 15  1  0  0  0
 15 16  1  0  0  0
 12  7  1  0  0  0
 15 11  1  0  0  0
  6 17  1  0  0  0
 13 18  1  0  0  0
M  END
>  <CHROM.0>
-59.88758699,68.22269468

>  <CHROM.1>
70.10703828,-173.00536594,96.87669117,96.76911522,-3.86491027,24.43785638
4.23770863,0.43037181,-0.57833898,-0.13584060

>  <Name>
9f4af7ef-1188-4657-9b71-87f64c7ba5be

>  <RI>
2.07598e+07

>  <Rbt.Current_Directory>
/data/work/jku/5V6S/work/40/8dba899c20c42488f2b1a17844994e

>  <Rbt.Executable>
rbdock ($Id: //depot/dev/client3/rdock/2013.1/src/exe/rbdock.cxx#4 $)

>  <Rbt.Library>
libRbt.so (2013.1, Build901 2013/11/27)

>  <Rbt.Parameter_File>
/rDock_2013.1_src/data/scripts/dock.prm

>  <Rbt.Receptor>
docking.prm

>  <SCORE>
-10.4725

>  <SCORE.INTER>
-6.35507

>  <SCORE.INTER.CONST>
1

>  <SCORE.INTER.POLAR>
0

>  <SCORE.INTER.REPUL>
0

>  <SCORE.INTER.ROT>
4

>  <SCORE.INTER.VDW>
-15.7551

>  <SCORE.INTER.norm>
-0.397192

>  <SCORE.INTRA>
-2.60604

>  <SCORE.INTRA.DIHEDRAL>
-3.26759

>  <SCORE.INTRA.DIHEDRAL.0>
5.33743

>  <SCORE.INTRA.POLAR>
0

>  <SCORE.INTRA.POLAR.0>
0

>  <SCORE.INTRA.REPUL>
0

>  <SCORE.INTRA.REPUL.0>
0

>  <SCORE.INTRA.VDW>
-0.972247

>  <SCORE.INTRA.VDW.0>
-0.15401

>  <SCORE.INTRA.norm>
-0.162878

>  <SCORE.RESTR>
0

>  <SCORE.RESTR.CAVITY>
0

>  <SCORE.RESTR.norm>
0

>  <SCORE.SYSTEM>
-1.51142

>  <SCORE.SYSTEM.CONST>
0

>  <SCORE.SYSTEM.DIHEDRAL>
0.336164

>  <SCORE.SYSTEM.POLAR>
-0.502265

>  <SCORE.SYSTEM.VDW>
0.0281959

>  <SCORE.SYSTEM.norm>
-0.0944639

>  <SCORE.heavy>
16

>  <SCORE.norm>
-0.654533

>  <enum_code>
M

>  <enum_smi>
CCC(CC)Nc1ncnc2c1[nH+]cn2C

>  <sha256>
1c5e02397d5873f6efa1b3fea650d685ce255b2bb069a261985e6139479ba70b

>  <std_smi>
CCC(CC)Nc1ncnc2c1ncn2C

>  <uuid>
9f4af7ef-1188-4657-9b71-87f64c7ba5be

$$$$
9f4af7ef-1188-4657-9b71-87f64c7ba5be
  rDOCK(R)          3D
libRbt.so/2013.1/901 2013/11/27
 18 19  0  0  0  0  0  0  0  0999 V2000
   -0.0602   24.7640    6.2463 C   0  0  0  0  0  0
   -0.8736   26.0500    6.1717 C   0  0  0  0  0  0
   -2.0282   25.9593    5.1510 C   0  0  0  0  0  0
   -3.1054   24.9319    5.5606 C   0  0  0  0  0  0
   -4.2092   24.7436    4.5323 C   0  0  0  0  0  0
   -2.7044   27.2633    5.0505 N   0  0  0  0  0  0
   -2.1675   28.2212    4.1980 C   0  0  0  0  0  0
   -1.6701   27.8813    2.9688 N   0  0  0  0  0  0
   -1.1493   28.8272    2.1418 C   0  0  0  0  0  0
   -1.0497   30.1493    2.3808 N   0  0  0  0  0  0
   -1.5655   30.4648    3.6077 C   0  0  0  0  0  0
   -2.1158   29.5820    4.5212 C   0  0  0  0  0  0
   -2.5197   30.3530    5.5985 N   0  3  0  0  0  0
   -2.2311   31.6383    5.3672 C   0  0  0  0  0  0
   -1.6419   31.7240    4.1667 N   0  0  0  0  0  0
   -1.1702   32.9397    3.5284 C   0  0  0  0  0  0
   -3.0720   27.6107    5.9278 H   0  0  0  0  0  0
   -2.9991   29.9964    6.4198 H   0  0  0  0  0  0
  1  2  1  0  0  0
  2  3  1  0  0  0
  3  4  1  0  0  0
  4  5  1  0  0  0
  3  6  1  0  0  0
  6  7  1  0  0  0
  7  8  2  0  0  0
  8  9  1  0  0  0
  9 10  2  0  0  0
 10 11  1  0  0  0
 11 12  2  0  0  0
 12 13  1  0  0  0
 13 14  2  0  0  0
 14 15  1  0  0  0
 15 16  1  0  0  0
 12  7  1  0  0  0
 15 11  1  0  0  0
  6 17  1  0  0  0
 13 18  1  0  0  0
M  END
>  <CHROM.0>
-59.88758699,-179.21508228

>  <CHROM.1>
65.80068840,-175.92098638,84.20288894,40.43251597,-1.90036352,28.42652521
4.48232089,2.27310581,-1.42356756,-2.69480827

>  <Name>
9f4af7ef-1188-4657-9b71-87f64c7ba5be

>  <RI>
2.07598e+07

>  <Rbt.Current_Directory>
/data/work/jku/5V6S/work/40/8dba899c20c42488f2b1a17844994e

>  <Rbt.Executable>
rbdock ($Id: //depot/dev/client3/rdock/2013.1/src/exe/rbdock.cxx#4 $)

>  <Rbt.Library>
libRbt.so (2013.1, Build901 2013/11/27)

>  <Rbt.Parameter_File>
/rDock_2013.1_src/data/scripts/dock.prm

>  <Rbt.Receptor>
docking.prm

>  <SCORE>
-10.9074

>  <SCORE.INTER>
-8.31412

>  <SCORE.INTER.CONST>
1

>  <SCORE.INTER.POLAR>
0

>  <SCORE.INTER.REPUL>
0.00426809

>  <SCORE.INTER.ROT>
4

>  <SCORE.INTER.VDW>
-17.7355

>  <SCORE.INTER.norm>
-0.519633

>  <SCORE.INTRA>
-2.32321

>  <SCORE.INTRA.DIHEDRAL>
-4.21435

>  <SCORE.INTRA.DIHEDRAL.0>
5.33743

>  <SCORE.INTRA.POLAR>
0

>  <SCORE.INTRA.POLAR.0>
0

>  <SCORE.INTRA.REPUL>
0

>  <SCORE.INTRA.REPUL.0>
0

>  <SCORE.INTRA.VDW>
-0.216034

>  <SCORE.INTRA.VDW.0>
-0.15401

>  <SCORE.INTRA.norm>
-0.145201

>  <SCORE.RESTR>
0

>  <SCORE.RESTR.CAVITY>
0

>  <SCORE.RESTR.norm>
0

>  <SCORE.SYSTEM>
-0.270092

>  <SCORE.SYSTEM.CONST>
0

>  <SCORE.SYSTEM.DIHEDRAL>
0.0106712

>  <SCORE.SYSTEM.VDW>
-0.275427

>  <SCORE.SYSTEM.norm>
-0.0168807

>  <SCORE.heavy>
16

>  <SCORE.norm>
-0.681714

>  <enum_code>
M

>  <enum_smi>
CCC(CC)Nc1ncnc2c1[nH+]cn2C

>  <sha256>
1c5e02397d5873f6efa1b3fea650d685ce255b2bb069a261985e6139479ba70b

>  <std_smi>
CCC(CC)Nc1ncnc2c1ncn2C

>  <uuid>
9f4af7ef-1188-4657-9b71-87f64c7ba5be

$$$$
9f4af7ef-1188-4657-9b71-87f64c7ba5be
  rDOCK(R)          3D
libRbt.so/2013.1/901 2013/11/27
 18 19  0  0  0  0  0  0  0  0999 V2000
   -1.3897   26.9727    6.3552 C   0  0  0  0  0  0
   -0.4359   25.8043    6.1401 C   0  0  0  0  0  0
   -1.0021   24.7530    5.1616 C   0  0  0  0  0  0
    0.0217   23.6506    4.8146 C   0  0  0  0  0  0
   -0.4285   22.7085    3.7095 C   0  0  0  0  0  0
   -2.1585   24.0782    5.7739 N   0  0  0  0  0  0
   -3.4332   24.4431    5.3557 C   0  0  0  0  0  0
   -4.0369   25.5797    5.8218 N   0  0  0  0  0  0
   -5.2835   25.9283    5.4039 C   0  0  0  0  0  0
   -6.0626   25.2629    4.5291 N   0  0  0  0  0  0
   -5.4319   24.1402    4.0681 C   0  0  0  0  0  0
   -4.1705   23.6979    4.4283 C   0  0  0  0  0  0
   -3.9494   22.5433    3.6960 N   0  3  0  0  0  0
   -5.0150   22.2832    2.9307 C   0  0  0  0  0  0
   -5.9297   23.2373    3.1510 N   0  0  0  0  0  0
   -7.2340   23.3359    2.5210 C   0  0  0  0  0  0
   -2.0562   23.8923    6.7641 H   0  0  0  0  0  0
   -3.0900   22.0023    3.7112 H   0  0  0  0  0  0
  1  2  1  0  0  0
  2  3  1  0  0  0
  3  4  1  0  0  0
  4  5  1  0  0  0
  3  6  1  0  0  0
  6  7  1  0  0  0
  7  8  2  0  0  0
  8  9  1  0  0  0
  9 10  2  0  0  0
 10 11  1  0  0  0
 11 12  2  0  0  0
 12 13  1  0  0  0
 13 14  2  0  0  0
 14 15  1  0  0  0
 15 16  1  0  0  0
 12  7  1  0  0  0
 15 11  1  0  0  0
  6 17  1  0  0  0
 13 18  1  0  0  0
M  END
>  <CHROM.0>
-59.88758699,69.01902240

>  <CHROM.1>
173.44543645,-171.91789632,103.14328284,-79.32171041,-3.45377770,24.26934543
4.61778855,0.41237697,-0.17724599,0.61580452

>  <Name>
9f4af7ef-1188-4657-9b71-87f64c7ba5be

>  <RI>
2.07598e+07

>  <Rbt.Current_Directory>
/data/work/jku/5V6S/work/40/8dba899c20c42488f2b1a17844994e

>  <Rbt.Executable>
rbdock ($Id: //depot/dev/client3/rdock/2013.1/src/exe/rbdock.cxx#4 $)

>  <Rbt.Library>
libRbt.so (2013.1, Build901 2013/11/27)

>  <Rbt.Parameter_File>
/rDock_2013.1_src/data/scripts/dock.prm

>  <Rbt.Receptor>
docking.prm

>  <SCORE>
-11.9191

>  <SCORE.INTER>
-7.60825

>  <SCORE.INTER.CONST>
1

>  <SCORE.INTER.POLAR>
0

>  <SCORE.INTER.REPUL>
0

>  <SCORE.INTER.ROT>
4

>  <SCORE.INTER.VDW>
-17.0083

>  <SCORE.INTER.norm>
-0.475516

>  <SCORE.INTRA>
-2.79724

>  <SCORE.INTRA.DIHEDRAL>
-3.10119

>  <SCORE.INTRA.DIHEDRAL.0>
5.33743

>  <SCORE.INTRA.POLAR>
0

>  <SCORE.INTRA.POLAR.0>
0

>  <SCORE.INTRA.REPUL>
0

>  <SCORE.INTRA.REPUL.0>
0

>  <SCORE.INTRA.VDW>
-1.24665

>  <SCORE.INTRA.VDW.0>
-0.15401

>  <SCORE.INTRA.norm>
-0.174828

>  <SCORE.RESTR>
0

>  <SCORE.RESTR.CAVITY>
0

>  <SCORE.RESTR.norm>
0

>  <SCORE.SYSTEM>
-1.51361

>  <SCORE.SYSTEM.CONST>
0

>  <SCORE.SYSTEM.DIHEDRAL>
0.401637

>  <SCORE.SYSTEM.POLAR>
-0.502997

>  <SCORE.SYSTEM.VDW>
-0.0042398

>  <SCORE.SYSTEM.norm>
-0.0946008

>  <SCORE.heavy>
16

>  <SCORE.norm>
-0.744944

>  <enum_code>
M

>  <enum_smi>
CCC(CC)Nc1ncnc2c1[nH+]cn2C

>  <sha256>
1c5e02397d5873f6efa1b3fea650d685ce255b2bb069a261985e6139479ba70b

>  <std_smi>
CCC(CC)Nc1ncnc2c1ncn2C

>  <uuid>
9f4af7ef-1188-4657-9b71-87f64c7ba5be

$$$$
947bca66-46bf-4341-9bdb-fd4970a55c6f
  rDOCK(R)          3D
libRbt.so/2013.1/901 2013/11/27
 19 20  0  0  0  0  0  0  0  0999 V2000
   -0.8189   25.4151    6.3139 C   0  0  0  0  0  0
   -2.1104   25.3586    5.5072 C   0  0  0  0  0  0
   -2.7748   26.7211    5.2180 C   0  0  0  0  0  0
   -4.1109   26.6340    4.4584 C   0  0  0  0  0  0
   -4.8033   27.9794    4.2974 C   0  0  0  0  0  0
   -1.8290   27.5538    4.4533 N   0  0  0  0  0  0
   -1.8369   28.9262    4.5919 C   0  0  0  0  0  0
   -2.1386   29.5108    5.7953 N   0  0  0  0  0  0
   -2.1293   30.8579    5.9710 C   0  0  0  0  0  0
   -1.8332   31.7495    5.0261 N   0  3  0  0  0  0
   -1.4995   31.1698    3.7301 C   0  0  0  0  0  0
   -1.5065   29.7969    3.5426 C   0  0  0  0  0  0
   -1.1237   29.6084    2.2263 N   0  3  0  0  0  0
   -0.8998   30.7825    1.6261 C   0  0  0  0  0  0
   -1.1353   31.7578    2.5303 N   0  0  0  0  0  0
   -0.9839   33.1791    2.2324 C   0  0  0  0  0  0
   -1.5679   27.1617    3.5558 H   0  0  0  0  0  0
   -1.8410   32.7458    5.2212 H   0  0  0  0  0  0
   -0.9976   28.7004    1.7757 H   0  0  0  0  0  0
  1  2  1  0  0  0
  2  3  1  0  0  0
  3  4  1  0  0  0
  4  5  1  0  0  0
  3  6  1  0  0  0
  6  7  1  0  0  0
  7  8  2  0  0  0
  8  9  1  0  0  0
  9 10  2  0  0  0
 10 11  1  0  0  0
 11 12  2  0  0  0
 12 13  1  0  0  0
 13 14  2  0  0  0
 14 15  1  0  0  0
 15 16  1  0  0  0
 12  7  1  0  0  0
 15 11  1  0  0  0
  6 17  1  0  0  0
 10 18  1  0  0  0
 13 19  1  0  0  0
M  END
>  <CHROM.0>
-59.88758699,69.28072573

>  <CHROM.1>
-177.31041647,174.81928810,-148.97466375,33.71844931,-1.97756894,29.16255454
4.21789234,-2.34215676,1.27077387,0.33269452

>  <Name>
947bca66-46bf-4341-9bdb-fd4970a55c6f

>  <RI>
1.92771e+07

>  <Rbt.Current_Directory>
/data/work/jku/5V6S/work/40/8dba899c20c42488f2b1a17844994e

>  <Rbt.Executable>
rbdock ($Id: //depot/dev/client3/rdock/2013.1/src/exe/rbdock.cxx#4 $)

>  <Rbt.Library>
libRbt.so (2013.1, Build901 2013/11/27)

>  <Rbt.Parameter_File>
/rDock_2013.1_src/data/scripts/dock.prm

>  <Rbt.Receptor>
docking.prm

>  <SCORE>
-16.418

>  <SCORE.INTER>
-13.0851

>  <SCORE.INTER.CONST>
1

>  <SCORE.INTER.POLAR>
-1.34164

>  <SCORE.INTER.REPUL>
0

>  <SCORE.INTER.ROT>
4

>  <SCORE.INTER.VDW>
-17.9235

>  <SCORE.INTER.norm>
-0.817818

>  <SCORE.INTRA>
-1.81991

>  <SCORE.INTRA.DIHEDRAL>
0.071954

>  <SCORE.INTRA.DIHEDRAL.0>
1.24319

>  <SCORE.INTRA.POLAR>
0

>  <SCORE.INTRA.POLAR.0>
0

>  <SCORE.INTRA.REPUL>
0

>  <SCORE.INTRA.REPUL.0>
0

>  <SCORE.INTRA.VDW>
-1.85589

>  <SCORE.INTRA.VDW.0>
0.737607

>  <SCORE.INTRA.norm>
-0.113744

>  <SCORE.RESTR>
0

>  <SCORE.RESTR.CAVITY>
0

>  <SCORE.RESTR.norm>
0

>  <SCORE.SYSTEM>
-1.51302

>  <SCORE.SYSTEM.CONST>
0

>  <SCORE.SYSTEM.DIHEDRAL>
0.424377

>  <SCORE.SYSTEM.POLAR>
-0.503126

>  <SCORE.SYSTEM.VDW>
-0.0145813

>  <SCORE.SYSTEM.norm>
-0.0945638

>  <SCORE.heavy>
16

>  <SCORE.norm>
-1.02613

>  <enum_code>
M

>  <enum_smi>
CCC(CC)Nc1nc[nH+]c2c1[nH+]cn2C

>  <sha256>
1c5e02397d5873f6efa1b3fea650d685ce255b2bb069a261985e6139479ba70b

>  <std_smi>
CCC(CC)Nc1ncnc2c1ncn2C

>  <uuid>
947bca66-46bf-4341-9bdb-fd4970a55c6f

$$$$
947bca66-46bf-4341-9bdb-fd4970a55c6f
  rDOCK(R)          3D
libRbt.so/2013.1/901 2013/11/27
 19 20  0  0  0  0  0  0  0  0999 V2000
   -2.1199   29.6323    6.3765 C   0  0  0  0  0  0
   -2.3087   28.2755    5.7089 C   0  0  0  0  0  0
   -3.6821   28.0464    5.0435 C   0  0  0  0  0  0
   -3.8696   26.6488    4.4259 C   0  0  0  0  0  0
   -5.2775   26.4029    3.9036 C   0  0  0  0  0  0
   -3.8791   29.0726    4.0039 N   0  0  0  0  0  0
   -2.9955   29.1776    2.9499 C   0  0  0  0  0  0
   -2.8925   28.1793    2.0151 N   0  0  0  0  0  0
   -2.0514   28.2641    0.9516 C   0  0  0  0  0  0
   -1.2494   29.2961    0.6922 N   0  3  0  0  0  0
   -1.3318   30.3847    1.6594 C   0  0  0  0  0  0
   -2.1871   30.3061    2.7467 C   0  0  0  0  0  0
   -2.0253   31.5025    3.4229 N   0  3  0  0  0  0
   -1.1242   32.2757    2.8072 C   0  0  0  0  0  0
   -0.6765   31.6030    1.7249 N   0  0  0  0  0  0
    0.3168   32.1431    0.8011 C   0  0  0  0  0  0
   -4.3328   29.9152    4.3380 H   0  0  0  0  0  0
   -0.6443   29.3010   -0.1229 H   0  0  0  0  0  0
   -2.5410   31.7780    4.2605 H   0  0  0  0  0  0
  1  2  1  0  0  0
  2  3  1  0  0  0
  3  4  1  0  0  0
  4  5  1  0  0  0
  3  6  1  0  0  0
  6  7  1  0  0  0
  7  8  2  0  0  0
  8  9  1  0  0  0
  9 10  2  0  0  0
 10 11  1  0  0  0
 11 12  2  0  0  0
 12 13  1  0  0  0
 13 14  2  0  0  0
 14 15  1  0  0  0
 15 16  1  0  0  0
 12  7  1  0  0  0
 15 11  1  0  0  0
  6 17  1  0  0  0
 10 18  1  0  0  0
 13 19  1  0  0  0
M  END
>  <CHROM.0>
-59.88758699,68.84372922

>  <CHROM.1>
-177.63573031,174.14460789,59.57340061,66.41775912,-2.34251708,29.44682523
3.10141778,-2.85918263,-0.97721261,-1.90947093

>  <Name>
947bca66-46bf-4341-9bdb-fd4970a55c6f

>  <RI>
1.92771e+07

>  <Rbt.Current_Directory>
/data/work/jku/5V6S/work/40/8dba899c20c42488f2b1a17844994e

>  <Rbt.Executable>
rbdock ($Id: //depot/dev/client3/rdock/2013.1/src/exe/rbdock.cxx#4 $)

>  <Rbt.Library>
libRbt.so (2013.1, Build901 2013/11/27)

>  <Rbt.Parameter_File>
/rDock_2013.1_src/data/scripts/dock.prm

>  <Rbt.Receptor>
docking.prm

>  <SCORE>
-13.7386

>  <SCORE.INTER>
-10.164

>  <SCORE.INTER.CONST>
1

>  <SCORE.INTER.POLAR>
-1.40312

>  <SCORE.INTER.REPUL>
0

>  <SCORE.INTER.ROT>
4

>  <SCORE.INTER.VDW>
-14.7934

>  <SCORE.INTER.norm>
-0.63525

>  <SCORE.INTRA>
-2.06091

>  <SCORE.INTRA.DIHEDRAL>
0.0435083

>  <SCORE.INTRA.DIHEDRAL.0>
1.24319

>  <SCORE.INTRA.POLAR>
0

>  <SCORE.INTRA.POLAR.0>
0

>  <SCORE.INTRA.REPUL>
0

>  <SCORE.INTRA.REPUL.0>
0

>  <SCORE.INTRA.VDW>
-2.08266

>  <SCORE.INTRA.VDW.0>
0.737607

>  <SCORE.INTRA.norm>
-0.128807

>  <SCORE.RESTR>
0

>  <SCORE.RESTR.CAVITY>
0

>  <SCORE.RESTR.norm>
0

>  <SCORE.SYSTEM>
-1.51365

>  <SCORE.SYSTEM.CONST>
0

>  <SCORE.SYSTEM.DIHEDRAL>
0.386742

>  <SCORE.SYSTEM.POLAR>
-0.50288

>  <SCORE.SYSTEM.VDW>
0.00277442

>  <SCORE.SYSTEM.norm>
-0.094603

>  <SCORE.heavy>
16

>  <SCORE.norm>
-0.85866

>  <enum_code>
M

>  <enum_smi>
CCC(CC)Nc1nc[nH+]c2c1[nH+]cn2C

>  <sha256>
1c5e02397d5873f6efa1b3fea650d685ce255b2bb069a261985e6139479ba70b

>  <std_smi>
CCC(CC)Nc1ncnc2c1ncn2C

>  <uuid>
947bca66-46bf-4341-9bdb-fd4970a55c6f

$$$$
947bca66-46bf-4341-9bdb-fd4970a55c6f
  rDOCK(R)          3D
libRbt.so/2013.1/901 2013/11/27
 19 20  0  0  0  0  0  0  0  0999 V2000
   -1.0644   24.6631    5.0036 C   0  0  0  0  0  0
   -1.7669   25.5291    6.0421 C   0  0  0  0  0  0
   -2.4982   26.7704    5.4890 C   0  0  0  0  0  0
   -3.6364   26.4562    4.5012 C   0  0  0  0  0  0
   -4.8585   25.8380    5.1644 C   0  0  0  0  0  0
   -1.5099   27.6475    4.8359 N   0  0  0  0  0  0
   -1.6663   29.0178    4.8634 C   0  0  0  0  0  0
   -2.0361   29.6614    6.0166 N   0  0  0  0  0  0
   -2.1730   31.0114    6.0831 C   0  0  0  0  0  0
   -1.9692   31.8508    5.0685 N   0  3  0  0  0  0
   -1.5676   31.2080    3.8225 C   0  0  0  0  0  0
   -1.4256   29.8317    3.7463 C   0  0  0  0  0  0
   -1.0172   29.5803    2.4484 N   0  3  0  0  0  0
   -0.9177   30.7195    1.7548 C   0  0  0  0  0  0
   -1.2619   31.7334    2.5781 N   0  0  0  0  0  0
   -1.2628   33.1341    2.1661 C   0  0  0  0  0  0
   -1.0581   27.2303    4.0302 H   0  0  0  0  0  0
   -2.0854   32.8529    5.1826 H   0  0  0  0  0  0
   -0.7914   28.6579    2.0721 H   0  0  0  0  0  0
  1  2  1  0  0  0
  2  3  1  0  0  0
  3  4  1  0  0  0
  4  5  1  0  0  0
  3  6  1  0  0  0
  6  7  1  0  0  0
  7  8  2  0  0  0
  8  9  1  0  0  0
  9 10  2  0  0  0
 10 11  1  0  0  0
 11 12  2  0  0  0
 12 13  1  0  0  0
 13 14  2  0  0  0
 14 15  1  0  0  0
 15 16  1  0  0  0
 12  7  1  0  0  0
 15 11  1  0  0  0
  6 17  1  0  0  0
 10 18  1  0  0  0
 13 19  1  0  0  0
M  END
>  <CHROM.0>
-59.88758699,68.74016506

>  <CHROM.1>
61.45881944,71.29811390,-146.80172409,43.80835096,-1.92356076,28.99878690
4.34211913,-2.04606861,1.13297305,0.08529042

>  <Name>
947bca66-46bf-4341-9bdb-fd4970a55c6f

>  <RI>
1.92771e+07

>  <Rbt.Current_Directory>
/data/work/jku/5V6S/work/40/8dba899c20c42488f2b1a17844994e

>  <Rbt.Executable>
rbdock ($Id: //depot/dev/client3/rdock/2013.1/src/exe/rbdock.cxx#4 $)

>  <Rbt.Library>
libRbt.so (2013.1, Build901 2013/11/27)

>  <Rbt.Parameter_File>
/rDock_2013.1_src/data/scripts/dock.prm

>  <Rbt.Receptor>
docking.prm

>  <SCORE>
-15.8717

>  <SCORE.INTER>
-13.7798

>  <SCORE.INTER.CONST>
1

>  <SCORE.INTER.POLAR>
-1.34164

>  <SCORE.INTER.REPUL>
0

>  <SCORE.INTER.ROT>
4

>  <SCORE.INTER.VDW>
-18.6182

>  <SCORE.INTER.norm>
-0.861236

>  <SCORE.INTRA>
-0.578432

>  <SCORE.INTRA.DIHEDRAL>
0.494645

>  <SCORE.INTRA.DIHEDRAL.0>
1.24319

>  <SCORE.INTRA.POLAR>
0

>  <SCORE.INTRA.POLAR.0>
0

>  <SCORE.INTRA.REPUL>
0

>  <SCORE.INTRA.REPUL.0>
0

>  <SCORE.INTRA.VDW>
-0.825755

>  <SCORE.INTRA.VDW.0>
0.737607

>  <SCORE.INTRA.norm>
-0.036152

>  <SCORE.RESTR>
0

>  <SCORE.RESTR.CAVITY>
0

>  <SCORE.RESTR.norm>
0

>  <SCORE.SYSTEM>
-1.51353

>  <SCORE.SYSTEM.CONST>
0

>  <SCORE.SYSTEM.DIHEDRAL>
0.37807

>  <SCORE.SYSTEM.POLAR>
-0.5028

>  <SCORE.SYSTEM.VDW>
0.0069516

>  <SCORE.SYSTEM.norm>
-0.0945958

>  <SCORE.heavy>
16

>  <SCORE.norm>
-0.991983

>  <enum_code>
M

>  <enum_smi>
CCC(CC)Nc1nc[nH+]c2c1[nH+]cn2C

>  <sha256>
1c5e02397d5873f6efa1b3fea650d685ce255b2bb069a261985e6139479ba70b

>  <std_smi>
CCC(CC)Nc1ncnc2c1ncn2C

>  <uuid>
947bca66-46bf-4341-9bdb-fd4970a55c6f

$$$$
947bca66-46bf-4341-9bdb-fd4970a55c6f
  rDOCK(R)          3D
libRbt.so/2013.1/901 2013/11/27
 19 20  0  0  0  0  0  0  0  0999 V2000
   -4.4592   25.3154    4.3366 C   0  0  0  0  0  0
   -3.2505   25.3025    5.2645 C   0  0  0  0  0  0
   -2.2750   26.4875    5.1033 C   0  0  0  0  0  0
   -1.0481   26.4381    6.0319 C   0  0  0  0  0  0
   -0.0635   25.3346    5.6739 C   0  0  0  0  0  0
   -3.0147   27.7415    5.3339 N   0  0  0  0  0  0
   -2.5191   28.9407    4.8659 C   0  0  0  0  0  0
   -2.5065   30.0566    5.6631 N   0  0  0  0  0  0
   -2.0015   31.2451    5.2411 C   0  0  0  0  0  0
   -1.4708   31.4660    4.0390 N   0  3  0  0  0  0
   -1.4582   30.3023    3.1598 C   0  0  0  0  0  0
   -1.9712   29.0866    3.5826 C   0  0  0  0  0  0
   -1.7737   28.2206    2.5216 N   0  3  0  0  0  0
   -1.1848   28.8512    1.4997 C   0  0  0  0  0  0
   -0.9908   30.1365    1.8667 N   0  0  0  0  0  0
   -0.3597   31.1294    1.0022 C   0  0  0  0  0  0
   -3.5608   27.7462    6.1878 H   0  0  0  0  0  0
   -1.1065   32.3786    3.7837 H   0  0  0  0  0  0
   -2.0138   27.2278    2.5214 H   0  0  0  0  0  0
  1  2  1  0  0  0
  2  3  1  0  0  0
  3  4  1  0  0  0
  4  5  1  0  0  0
  3  6  1  0  0  0
  6  7  1  0  0  0
  7  8  2  0  0  0
  8  9  1  0  0  0
  9 10  2  0  0  0
 10 11  1  0  0  0
 11 12  2  0  0  0
 12 13  1  0  0  0
 13 14  2  0  0  0
 14 15  1  0  0  0
 15 16  1  0  0  0
 12  7  1  0  0  0
 15 11  1  0  0  0
  6 17  1  0  0  0
 10 18  1  0  0  0
 13 19  1  0  0  0
M  END
>  <CHROM.0>
-59.88758699,69.27754099

>  <CHROM.1>
-178.85746429,69.77465968,-160.07317876,-134.48537953,-1.89621696,28.46377660
4.07722496,-2.35987485,1.24356989,0.25450074

>  <Name>
947bca66-46bf-4341-9bdb-fd4970a55c6f

>  <RI>
1.92771e+07

>  <Rbt.Current_Directory>
/data/work/jku/5V6S/work/40/8dba899c20c42488f2b1a17844994e

>  <Rbt.Executable>
rbdock ($Id: //depot/dev/client3/rdock/2013.1/src/exe/rbdock.cxx#4 $)

>  <Rbt.Library>
libRbt.so (2013.1, Build901 2013/11/27)

>  <Rbt.Parameter_File>
/rDock_2013.1_src/data/scripts/dock.prm

>  <Rbt.Receptor>
docking.prm

>  <SCORE>
-10.9641

>  <SCORE.INTER>
-7.75753

>  <SCORE.INTER.CONST>
1

>  <SCORE.INTER.POLAR>
0

>  <SCORE.INTER.REPUL>
0

>  <SCORE.INTER.ROT>
4

>  <SCORE.INTER.VDW>
-17.1575

>  <SCORE.INTER.norm>
-0.484845

>  <SCORE.INTRA>
-1.69351

>  <SCORE.INTRA.DIHEDRAL>
0.0425648

>  <SCORE.INTRA.DIHEDRAL.0>
1.24319

>  <SCORE.INTRA.POLAR>
0

>  <SCORE.INTRA.POLAR.0>
0

>  <SCORE.INTRA.REPUL>
0

>  <SCORE.INTRA.REPUL.0>
0

>  <SCORE.INTRA.VDW>
-1.71479

>  <SCORE.INTRA.VDW.0>
0.737607

>  <SCORE.INTRA.norm>
-0.105844

>  <SCORE.RESTR>
0

>  <SCORE.RESTR.CAVITY>
0

>  <SCORE.RESTR.norm>
0

>  <SCORE.SYSTEM>
-1.51303

>  <SCORE.SYSTEM.CONST>
0

>  <SCORE.SYSTEM.DIHEDRAL>
0.424096

>  <SCORE.SYSTEM.POLAR>
-0.503124

>  <SCORE.SYSTEM.VDW>
-0.0144564

>  <SCORE.SYSTEM.norm>
-0.0945645

>  <SCORE.heavy>
16

>  <SCORE.norm>
-0.685254

>  <enum_code>
M

>  <enum_smi>
CCC(CC)Nc1nc[nH+]c2c1[nH+]cn2C

>  <sha256>
1c5e02397d5873f6efa1b3fea650d685ce255b2bb069a261985e6139479ba70b

>  <std_smi>
CCC(CC)Nc1ncnc2c1ncn2C

>  <uuid>
947bca66-46bf-4341-9bdb-fd4970a55c6f

$$$$
947bca66-46bf-4341-9bdb-fd4970a55c6f
  rDOCK(R)          3D
libRbt.so/2013.1/901 2013/11/27
 19 20  0  0  0  0  0  0  0  0999 V2000
   -5.4325   26.8553    5.4056 C   0  0  0  0  0  0
   -4.3850   27.9621    5.4049 C   0  0  0  0  0  0
   -2.9628   27.5323    4.9875 C   0  0  0  0  0  0
   -2.2408   26.6317    6.0061 C   0  0  0  0  0  0
   -0.9064   26.1002    5.5036 C   0  0  0  0  0  0
   -2.1570   28.7424    4.7447 N   0  0  0  0  0  0
   -1.6166   28.9832    3.4986 C   0  0  0  0  0  0
   -1.4114   27.9588    2.6100 N   0  0  0  0  0  0
   -0.9058   28.1665    1.3663 C   0  0  0  0  0  0
   -0.5598   29.3540    0.8708 N   0  3  0  0  0  0
   -0.7679   30.4739    1.7817 C   0  0  0  0  0  0
   -1.2832   30.2706    3.0518 C   0  0  0  0  0  0
   -1.3673   31.5316    3.6154 N   0  3  0  0  0  0
   -0.9272   32.4618    2.7611 C   0  0  0  0  0  0
   -0.5434   31.8320    1.6296 N   0  0  0  0  0  0
   -0.0132   32.5329    0.4637 C   0  0  0  0  0  0
   -1.6530   29.0718    5.5602 H   0  0  0  0  0  0
   -0.1893   29.4444   -0.0701 H   0  0  0  0  0  0
   -1.7409   31.7361    4.5438 H   0  0  0  0  0  0
  1  2  1  0  0  0
  2  3  1  0  0  0
  3  4  1  0  0  0
  4  5  1  0  0  0
  3  6  1  0  0  0
  6  7  1  0  0  0
  7  8  2  0  0  0
  8  9  1  0  0  0
  9 10  2  0  0  0
 10 11  1  0  0  0
 11 12  2  0  0  0
 12 13  1  0  0  0
 13 14  2  0  0  0
 14 15  1  0  0  0
 15 16  1  0  0  0
 12  7  1  0  0  0
 15 11  1  0  0  0
  6 17  1  0  0  0
 10 18  1  0  0  0
 13 19  1  0  0  0
M  END
>  <CHROM.0>
-59.88758699,68.22476012

>  <CHROM.1>
-69.86660347,173.68533455,-118.89504663,-22.30630163,-1.73121019,29.19221217
3.38258024,2.22798346,-0.81560660,2.93419820

>  <Name>
947bca66-46bf-4341-9bdb-fd4970a55c6f

>  <RI>
1.92771e+07

>  <Rbt.Current_Directory>
/data/work/jku/5V6S/work/40/8dba899c20c42488f2b1a17844994e

>  <Rbt.Executable>
rbdock ($Id: //depot/dev/client3/rdock/2013.1/src/exe/rbdock.cxx#4 $)

>  <Rbt.Library>
libRbt.so (2013.1, Build901 2013/11/27)

>  <Rbt.Parameter_File>
/rDock_2013.1_src/data/scripts/dock.prm

>  <Rbt.Receptor>
docking.prm

>  <SCORE>
-16.6412

>  <SCORE.INTER>
-14.4385

>  <SCORE.INTER.CONST>
1

>  <SCORE.INTER.POLAR>
-1.40312

>  <SCORE.INTER.REPUL>
0

>  <SCORE.INTER.ROT>
4

>  <SCORE.INTER.VDW>
-19.0679

>  <SCORE.INTER.norm>
-0.902406

>  <SCORE.INTRA>
-0.691235

>  <SCORE.INTRA.DIHEDRAL>
1.6182

>  <SCORE.INTRA.DIHEDRAL.0>
1.24319

>  <SCORE.INTRA.POLAR>
0

>  <SCORE.INTRA.POLAR.0>
0

>  <SCORE.INTRA.REPUL>
0

>  <SCORE.INTRA.REPUL.0>
0

>  <SCORE.INTRA.VDW>
-1.50034

>  <SCORE.INTRA.VDW.0>
0.737607

>  <SCORE.INTRA.norm>
-0.0432022

>  <SCORE.RESTR>
0

>  <SCORE.RESTR.CAVITY>
0

>  <SCORE.RESTR.norm>
0

>  <SCORE.SYSTEM>
-1.51144

>  <SCORE.SYSTEM.CONST>
0

>  <SCORE.SYSTEM.DIHEDRAL>
0.336327

>  <SCORE.SYSTEM.POLAR>
-0.502267

>  <SCORE.SYSTEM.VDW>
0.0281098

>  <SCORE.SYSTEM.norm>
-0.0944648

>  <SCORE.heavy>
16

>  <SCORE.norm>
-1.04007

>  <enum_code>
M

>  <enum_smi>
CCC(CC)Nc1nc[nH+]c2c1[nH+]cn2C

>  <sha256>
1c5e02397d5873f6efa1b3fea650d685ce255b2bb069a261985e6139479ba70b

>  <std_smi>
CCC(CC)Nc1ncnc2c1ncn2C

>  <uuid>
947bca66-46bf-4341-9bdb-fd4970a55c6f

$$$$
497f83fa-28a3-4a8f-ab5d-c5c733991559
  rDOCK(R)          3D
libRbt.so/2013.1/901 2013/11/27
 19 20  0  0  0  0  0  0  0  0999 V2000
   -0.4727   22.9828    3.7412 C   0  0  0  0  0  0
   -0.1969   23.9155    4.9132 C   0  0  0  0  0  0
   -1.3163   24.9469    5.1547 C   0  0  0  0  0  0
   -0.8527   26.1145    6.0461 C   0  0  0  0  0  0
   -1.8414   27.2732    6.1122 C   0  0  0  0  0  0
   -2.4777   24.2673    5.8319 N   0  3  0  0  0  0
   -3.3233   23.4803    4.9560 C   0  0  0  0  0  0
   -3.0781   22.1539    5.0051 N   0  0  0  0  0  0
   -3.8264   21.3120    4.2428 C   0  0  0  0  0  0
   -4.8305   21.6633    3.4243 N   0  0  0  0  0  0
   -5.0636   23.0088    3.4163 C   0  0  0  0  0  0
   -4.3619   23.9570    4.1477 C   0  0  0  0  0  0
   -4.9445   25.1798    3.8395 N   0  3  0  0  0  0
   -5.9492   24.9924    2.9612 C   0  0  0  0  0  0
   -6.0247   23.6808    2.7001 N   0  0  0  0  0  0
   -6.9910   23.0709    1.7889 C   0  0  0  0  0  0
   -3.0648   24.8954    6.3905 H   0  0  0  0  0  0
   -2.1106   23.5738    6.5048 H   0  0  0  0  0  0
   -4.6992   26.1040    4.1902 H   0  0  0  0  0  0
  1  2  1  0  0  0
  2  3  1  0  0  0
  3  4  1  0  0  0
  4  5  1  0  0  0
  3  6  1  0  0  0
  6  7  1  0  0  0
  7  8  2  0  0  0
  8  9  1  0  0  0
  9 10  2  0  0  0
 10 11  1  0  0  0
 11 12  2  0  0  0
 12 13  1  0  0  0
 13 14  2  0  0  0
 14 15  1  0  0  0
 15 16  1  0  0  0
 12  7  1  0  0  0
 15 11  1  0  0  0
  6 17  1  0  0  0
  6 18  1  0  0  0
 13 19  1  0  0  0
M  END
>  <CHROM.0>
-59.88758699,69.40050130

>  <CHROM.1>
-163.30184764,169.88341956,-78.32128629,100.30071993,-3.43972130,23.90881125
4.28644555,-0.45948181,0.41668364,-2.90285967

>  <Name>
497f83fa-28a3-4a8f-ab5d-c5c733991559

>  <RI>
3.86839e+07

>  <Rbt.Current_Directory>
/data/work/jku/5V6S/work/40/8dba899c20c42488f2b1a17844994e

>  <Rbt.Executable>
rbdock ($Id: //depot/dev/client3/rdock/2013.1/src/exe/rbdock.cxx#4 $)

>  <Rbt.Library>
libRbt.so (2013.1, Build901 2013/11/27)

>  <Rbt.Parameter_File>
/rDock_2013.1_src/data/scripts/dock.prm

>  <Rbt.Receptor>
docking.prm

>  <SCORE>
-9.14243

>  <SCORE.INTER>
-7.83531

>  <SCORE.INTER.CONST>
1

>  <SCORE.INTER.POLAR>
0

>  <SCORE.INTER.REPUL>
0

>  <SCORE.INTER.ROT>
4

>  <SCORE.INTER.VDW>
-17.2353

>  <SCORE.INTER.norm>
-0.489707

>  <SCORE.INTRA>
0.205419

>  <SCORE.INTRA.DIHEDRAL>
1.96639

>  <SCORE.INTRA.DIHEDRAL.0>
1.26949

>  <SCORE.INTRA.POLAR>
0

>  <SCORE.INTRA.POLAR.0>
0

>  <SCORE.INTRA.REPUL>
0

>  <SCORE.INTRA.REPUL.0>
0

>  <SCORE.INTRA.VDW>
-0.777774

>  <SCORE.INTRA.VDW.0>
-0.0909085

>  <SCORE.INTRA.norm>
0.0128387

>  <SCORE.RESTR>
0

>  <SCORE.RESTR.CAVITY>
0

>  <SCORE.RESTR.norm>
0

>  <SCORE.SYSTEM>
-1.51254

>  <SCORE.SYSTEM.CONST>
0

>  <SCORE.SYSTEM.DIHEDRAL>
0.434984

>  <SCORE.SYSTEM.POLAR>
-0.503166

>  <SCORE.SYSTEM.VDW>
-0.0192627

>  <SCORE.SYSTEM.norm>
-0.0945335

>  <SCORE.heavy>
16

>  <SCORE.norm>
-0.571402

>  <enum_code>
M

>  <enum_smi>
CCC(CC)[NH2+]c1ncnc2c1[nH+]cn2C

>  <sha256>
1c5e02397d5873f6efa1b3fea650d685ce255b2bb069a261985e6139479ba70b

>  <std_smi>
CCC(CC)Nc1ncnc2c1ncn2C

>  <uuid>
497f83fa-28a3-4a8f-ab5d-c5c733991559

$$$$
497f83fa-28a3-4a8f-ab5d-c5c733991559
  rDOCK(R)          3D
libRbt.so/2013.1/901 2013/11/27
 19 20  0  0  0  0  0  0  0  0999 V2000
   -5.2841   25.8468    4.6009 C   0  0  0  0  0  0
   -4.0814   26.5427    5.2244 C   0  0  0  0  0  0
   -2.7425   25.8391    4.9286 C   0  0  0  0  0  0
   -2.5669   24.5482    5.7505 C   0  0  0  0  0  0
   -3.2115   23.3195    5.1185 C   0  0  0  0  0  0
   -1.6084   26.7718    5.2650 N   0  3  0  0  0  0
   -1.4792   27.9205    4.3903 C   0  0  0  0  0  0
   -1.1759   27.6050    3.1135 N   0  0  0  0  0  0
   -1.0523   28.6005    2.1952 C   0  0  0  0  0  0
   -1.2176   29.9133    2.4206 N   0  0  0  0  0  0
   -1.5439   30.1930    3.7168 C   0  0  0  0  0  0
   -1.6916   29.2606    4.7343 C   0  0  0  0  0  0
   -2.0337   29.9880    5.8672 N   0  3  0  0  0  0
   -2.0893   31.2993    5.5620 C   0  0  0  0  0  0
   -1.7920   31.4295    4.2624 N   0  0  0  0  0  0
   -1.7443   32.7025    3.5461 C   0  0  0  0  0  0
   -0.6966   26.3109    5.3513 H   0  0  0  0  0  0
   -1.7865   27.1904    6.1932 H   0  0  0  0  0  0
   -2.2272   29.6433    6.8059 H   0  0  0  0  0  0
  1  2  1  0  0  0
  2  3  1  0  0  0
  3  4  1  0  0  0
  4  5  1  0  0  0
  3  6  1  0  0  0
  6  7  1  0  0  0
  7  8  2  0  0  0
  8  9  1  0  0  0
  9 10  2  0  0  0
 10 11  1  0  0  0
 11 12  2  0  0  0
 12 13  1  0  0  0
 13 14  2  0  0  0
 14 15  1  0  0  0
 15 16  1  0  0  0
 12  7  1  0  0  0
 15 11  1  0  0  0
  6 17  1  0  0  0
  6 18  1  0  0  0
 13 19  1  0  0  0
M  END
>  <CHROM.0>
-59.88758699,68.70228866

>  <CHROM.1>
-74.56893349,84.99095333,-68.94093726,-64.36447364,-2.23597502,28.18682311
4.44823330,2.00949972,-0.91505720,-2.97129820

>  <Name>
497f83fa-28a3-4a8f-ab5d-c5c733991559

>  <RI>
3.86839e+07

>  <Rbt.Current_Directory>
/data/work/jku/5V6S/work/40/8dba899c20c42488f2b1a17844994e

>  <Rbt.Executable>
rbdock ($Id: //depot/dev/client3/rdock/2013.1/src/exe/rbdock.cxx#4 $)

>  <Rbt.Library>
libRbt.so (2013.1, Build901 2013/11/27)

>  <Rbt.Parameter_File>
/rDock_2013.1_src/data/scripts/dock.prm

>  <Rbt.Receptor>
docking.prm

>  <SCORE>
-9.33145

>  <SCORE.INTER>
-9.27138

>  <SCORE.INTER.CONST>
1

>  <SCORE.INTER.POLAR>
0

>  <SCORE.INTER.REPUL>
0.00667955

>  <SCORE.INTER.ROT>
4

>  <SCORE.INTER.VDW>
-18.7048

>  <SCORE.INTER.norm>
-0.579461

>  <SCORE.INTRA>
1.45339

>  <SCORE.INTRA.DIHEDRAL>
2.86062

>  <SCORE.INTRA.DIHEDRAL.0>
1.26949

>  <SCORE.INTRA.POLAR>
0

>  <SCORE.INTRA.POLAR.0>
0

>  <SCORE.INTRA.REPUL>
0

>  <SCORE.INTRA.REPUL.0>
0

>  <SCORE.INTRA.VDW>
0.0230856

>  <SCORE.INTRA.VDW.0>
-0.0909085

>  <SCORE.INTRA.norm>
0.0908372

>  <SCORE.RESTR>
0

>  <SCORE.RESTR.CAVITY>
0

>  <SCORE.RESTR.norm>
0

>  <SCORE.SYSTEM>
-1.51346

>  <SCORE.SYSTEM.CONST>
0

>  <SCORE.SYSTEM.DIHEDRAL>
0.374922

>  <SCORE.SYSTEM.POLAR>
-0.502768

>  <SCORE.SYSTEM.VDW>
0.00848549

>  <SCORE.SYSTEM.norm>
-0.0945915

>  <SCORE.heavy>
16

>  <SCORE.norm>
-0.583216

>  <enum_code>
M

>  <enum_smi>
CCC(CC)[NH2+]c1ncnc2c1[nH+]cn2C

>  <sha256>
1c5e02397d5873f6efa1b3fea650d685ce255b2bb069a261985e6139479ba70b

>  <std_smi>
CCC(CC)Nc1ncnc2c1ncn2C

>  <uuid>
497f83fa-28a3-4a8f-ab5d-c5c733991559

$$$$
497f83fa-28a3-4a8f-ab5d-c5c733991559
  rDOCK(R)          3D
libRbt.so/2013.1/901 2013/11/27
 19 20  0  0  0  0  0  0  0  0999 V2000
   -1.3383   26.2906    6.3924 C   0  0  0  0  0  0
   -2.5183   27.0291    5.7742 C   0  0  0  0  0  0
   -3.2590   26.2121    4.6977 C   0  0  0  0  0  0
   -4.2489   27.0723    3.8896 C   0  0  0  0  0  0
   -3.5799   28.1057    2.9901 C   0  0  0  0  0  0
   -4.0304   25.1021    5.3625 N   0  3  0  0  0  0
   -4.5324   24.0809    4.4643 C   0  0  0  0  0  0
   -3.5666   23.3272    3.8979 N   0  0  0  0  0  0
   -3.9194   22.3208    3.0539 C   0  0  0  0  0  0
   -5.1702   21.9692    2.7170 N   0  0  0  0  0  0
   -6.1205   22.7390    3.3245 C   0  0  0  0  0  0
   -5.8753   23.7905    4.1967 C   0  0  0  0  0  0
   -7.1239   24.2701    4.5716 N   0  3  0  0  0  0
   -8.0857   23.5528    3.9583 C   0  0  0  0  0  0
   -7.4844   22.6259    3.2009 N   0  0  0  0  0  0
   -8.1872   21.6473    2.3738 C   0  0  0  0  0  0
   -4.7943   25.4239    5.9660 H   0  0  0  0  0  0
   -3.3929   24.5837    5.9898 H   0  0  0  0  0  0
   -7.3432   25.0356    5.2066 H   0  0  0  0  0  0
  1  2  1  0  0  0
  2  3  1  0  0  0
  3  4  1  0  0  0
  4  5  1  0  0  0
  3  6  1  0  0  0
  6  7  1  0  0  0
  7  8  2  0  0  0
  8  9  1  0  0  0
  9 10  2  0  0  0
 10 11  1  0  0  0
 11 12  2  0  0  0
 12 13  1  0  0  0
 13 14  2  0  0  0
 14 15  1  0  0  0
 15 16  1  0  0  0
 12  7  1  0  0  0
 15 11  1  0  0  0
  6 17  1  0  0  0
  6 18  1  0  0  0
 13 19  1  0  0  0
M  END
>  <CHROM.0>
-59.88758699,68.19905515

>  <CHROM.1>
-168.09296359,68.34086609,-166.94143318,67.89502692,-4.91761757,24.43367270
4.07872267,-0.78833838,0.26219090,-2.97566501

>  <Name>
497f83fa-28a3-4a8f-ab5d-c5c733991559

>  <RI>
3.86839e+07

>  <Rbt.Current_Directory>
/data/work/jku/5V6S/work/40/8dba899c20c42488f2b1a17844994e

>  <Rbt.Executable>
rbdock ($Id: //depot/dev/client3/rdock/2013.1/src/exe/rbdock.cxx#4 $)

>  <Rbt.Library>
libRbt.so (2013.1, Build901 2013/11/27)

>  <Rbt.Parameter_File>
/rDock_2013.1_src/data/scripts/dock.prm

>  <Rbt.Receptor>
docking.prm

>  <SCORE>
-8.8086

>  <SCORE.INTER>
-7.04463

>  <SCORE.INTER.CONST>
1

>  <SCORE.INTER.POLAR>
-0.958194

>  <SCORE.INTER.REPUL>
0

>  <SCORE.INTER.ROT>
4

>  <SCORE.INTER.VDW>
-13.1868

>  <SCORE.INTER.norm>
-0.44029

>  <SCORE.INTRA>
-0.252702

>  <SCORE.INTRA.DIHEDRAL>
0.485386

>  <SCORE.INTRA.DIHEDRAL.0>
1.26949

>  <SCORE.INTRA.POLAR>
0

>  <SCORE.INTRA.POLAR.0>
0

>  <SCORE.INTRA.REPUL>
0

>  <SCORE.INTRA.REPUL.0>
0

>  <SCORE.INTRA.VDW>
-0.495395

>  <SCORE.INTRA.VDW.0>
-0.0909085

>  <SCORE.INTRA.norm>
-0.0157939

>  <SCORE.RESTR>
0

>  <SCORE.RESTR.CAVITY>
0

>  <SCORE.RESTR.norm>
0

>  <SCORE.SYSTEM>
-1.51126

>  <SCORE.SYSTEM.CONST>
0

>  <SCORE.SYSTEM.DIHEDRAL>
0.334307

>  <SCORE.SYSTEM.POLAR>
-0.502235

>  <SCORE.SYSTEM.VDW>
0.0291813

>  <SCORE.SYSTEM.norm>
-0.0944541

>  <SCORE.heavy>
16

>  <SCORE.norm>
-0.550537

>  <enum_code>
M

>  <enum_smi>
CCC(CC)[NH2+]c1ncnc2c1[nH+]cn2C

>  <sha256>
1c5e02397d5873f6efa1b3fea650d685ce255b2bb069a261985e6139479ba70b

>  <std_smi>
CCC(CC)Nc1ncnc2c1ncn2C

>  <uuid>
497f83fa-28a3-4a8f-ab5d-c5c733991559

$$$$
497f83fa-28a3-4a8f-ab5d-c5c733991559
  rDOCK(R)          3D
libRbt.so/2013.1/901 2013/11/27
 19 20  0  0  0  0  0  0  0  0999 V2000
   -5.9236   27.7720    5.6831 C   0  0  0  0  0  0
   -5.5047   29.2095    5.4041 C   0  0  0  0  0  0
   -4.2831   29.3239    4.4715 C   0  0  0  0  0  0
   -2.9517   29.1736    5.2316 C   0  0  0  0  0  0
   -2.5807   27.7295    5.5505 C   0  0  0  0  0  0
   -4.2959   30.6735    3.8025 N   0  3  0  0  0  0
   -3.3345   30.8352    2.7297 C   0  0  0  0  0  0
   -3.5569   30.0301    1.6694 N   0  0  0  0  0  0
   -2.7319   30.1097    0.5910 C   0  0  0  0  0  0
   -1.6876   30.9410    0.4502 N   0  0  0  0  0  0
   -1.5059   31.7540    1.5322 C   0  0  0  0  0  0
   -2.2811   31.7558    2.6835 C   0  0  0  0  0  0
   -1.7436   32.7427    3.5001 N   0  3  0  0  0  0
   -0.6905   33.3144    2.8837 C   0  0  0  0  0  0
   -0.5408   32.7189    1.6932 N   0  0  0  0  0  0
    0.4972   33.0569    0.7215 C   0  0  0  0  0  0
   -4.2133   31.4643    4.4498 H   0  0  0  0  0  0
   -5.2083   30.8038    3.3345 H   0  0  0  0  0  0
   -2.0525   33.0363    4.4251 H   0  0  0  0  0  0
  1  2  1  0  0  0
  2  3  1  0  0  0
  3  4  1  0  0  0
  4  5  1  0  0  0
  3  6  1  0  0  0
  6  7  1  0  0  0
  7  8  2  0  0  0
  8  9  1  0  0  0
  9 10  2  0  0  0
 10 11  1  0  0  0
 11 12  2  0  0  0
 12 13  1  0  0  0
 13 14  2  0  0  0
 14 15  1  0  0  0
 15 16  1  0  0  0
 12  7  1  0  0  0
 15 11  1  0  0  0
  6 17  1  0  0  0
  6 18  1  0  0  0
 13 19  1  0  0  0
M  END
>  <CHROM.0>
-59.88758699,68.43157750

>  <CHROM.1>
-83.49900563,79.23717666,-170.00798979,64.57054783,-2.72042826,30.67097622
3.08982505,2.55854562,0.80105614,1.53860075

>  <Name>
497f83fa-28a3-4a8f-ab5d-c5c733991559

>  <RI>
3.86839e+07

>  <Rbt.Current_Directory>
/data/work/jku/5V6S/work/40/8dba899c20c42488f2b1a17844994e

>  <Rbt.Executable>
rbdock ($Id: //depot/dev/client3/rdock/2013.1/src/exe/rbdock.cxx#4 $)

>  <Rbt.Library>
libRbt.so (2013.1, Build901 2013/11/27)

>  <Rbt.Parameter_File>
/rDock_2013.1_src/data/scripts/dock.prm

>  <Rbt.Receptor>
docking.prm

>  <SCORE>
-7.34457

>  <SCORE.INTER>
-6.92114

>  <SCORE.INTER.CONST>
1

>  <SCORE.INTER.POLAR>
-1.1031

>  <SCORE.INTER.REPUL>
0.181222

>  <SCORE.INTER.ROT>
4

>  <SCORE.INTER.VDW>
-13.4767

>  <SCORE.INTER.norm>
-0.432571

>  <SCORE.INTRA>
1.08915

>  <SCORE.INTRA.DIHEDRAL>
2.87895

>  <SCORE.INTRA.DIHEDRAL.0>
1.26949

>  <SCORE.INTRA.POLAR>
0

>  <SCORE.INTRA.POLAR.0>
0

>  <SCORE.INTRA.REPUL>
0

>  <SCORE.INTRA.REPUL.0>
0

>  <SCORE.INTRA.VDW>
-0.350325

>  <SCORE.INTRA.VDW.0>
-0.0909085

>  <SCORE.INTRA.norm>
0.0680719

>  <SCORE.RESTR>
0

>  <SCORE.RESTR.CAVITY>
0

>  <SCORE.RESTR.norm>
0

>  <SCORE.SYSTEM>
-1.51258

>  <SCORE.SYSTEM.CONST>
0

>  <SCORE.SYSTEM.DIHEDRAL>
0.352793

>  <SCORE.SYSTEM.POLAR>
-0.502507

>  <SCORE.SYSTEM.VDW>
0.0195453

>  <SCORE.SYSTEM.norm>
-0.0945364

>  <SCORE.heavy>
16

>  <SCORE.norm>
-0.459036

>  <enum_code>
M

>  <enum_smi>
CCC(CC)[NH2+]c1ncnc2c1[nH+]cn2C

>  <sha256>
1c5e02397d5873f6efa1b3fea650d685ce255b2bb069a261985e6139479ba70b

>  <std_smi>
CCC(CC)Nc1ncnc2c1ncn2C

>  <uuid>
497f83fa-28a3-4a8f-ab5d-c5c733991559

$$$$
497f83fa-28a3-4a8f-ab5d-c5c733991559
  rDOCK(R)          3D
libRbt.so/2013.1/901 2013/11/27
 19 20  0  0  0  0  0  0  0  0999 V2000
   -0.2014   32.9626    1.6404 C   0  0  0  0  0  0
   -0.7633   32.9521    3.0560 C   0  0  0  0  0  0
   -1.9735   32.0138    3.2299 C   0  0  0  0  0  0
   -3.2599   32.5997    2.6177 C   0  0  0  0  0  0
   -4.3977   31.5932    2.4880 C   0  0  0  0  0  0
   -2.2122   31.7813    4.6990 N   0  3  0  0  0  0
   -2.9161   30.5551    5.0193 C   0  0  0  0  0  0
   -4.0801   30.7474    5.6749 N   0  0  0  0  0  0
   -4.8402   29.6698    6.0078 C   0  0  0  0  0  0
   -4.5594   28.3858    5.7356 N   0  0  0  0  0  0
   -3.3862   28.2314    5.0540 C   0  0  0  0  0  0
   -2.5326   29.2555    4.6681 C   0  0  0  0  0  0
   -1.4821   28.6406    3.9988 N   0  3  0  0  0  0
   -1.6787   27.3076    3.9784 C   0  0  0  0  0  0
   -2.8285   27.0540    4.6171 N   0  0  0  0  0  0
   -3.3929   25.7199    4.8106 C   0  0  0  0  0  0
   -2.6659   32.5647    5.1803 H   0  0  0  0  0  0
   -1.2992   31.6691    5.1704 H   0  0  0  0  0  0
   -0.6669   29.0729    3.5677 H   0  0  0  0  0  0
  1  2  1  0  0  0
  2  3  1  0  0  0
  3  4  1  0  0  0
  4  5  1  0  0  0
  3  6  1  0  0  0
  6  7  1  0  0  0
  7  8  2  0  0  0
  8  9  1  0  0  0
  9 10  2  0  0  0
 10 11  1  0  0  0
 11 12  2  0  0  0
 12 13  1  0  0  0
 13 14  2  0  0  0
 14 15  1  0  0  0
 15 16  1  0  0  0
 12  7  1  0  0  0
 15 11  1  0  0  0
  6 17  1  0  0  0
  6 18  1  0  0  0
 13 19  1  0  0  0
M  END
>  <CHROM.0>
-59.88758699,69.14758457

>  <CHROM.1>
-75.31184566,167.12768499,-156.05868506,-120.21613879,-2.75778370,30.00546064
4.17273718,-1.23476225,-0.55752478,2.91282783

>  <Name>
497f83fa-28a3-4a8f-ab5d-c5c733991559

>  <RI>
3.86839e+07

>  <Rbt.Current_Directory>
/data/work/jku/5V6S/work/40/8dba899c20c42488f2b1a17844994e

>  <Rbt.Executable>
rbdock ($Id: //depot/dev/client3/rdock/2013.1/src/exe/rbdock.cxx#4 $)

>  <Rbt.Library>
libRbt.so (2013.1, Build901 2013/11/27)

>  <Rbt.Parameter_File>
/rDock_2013.1_src/data/scripts/dock.prm

>  <Rbt.Receptor>
docking.prm

>  <SCORE>
-10.9082

>  <SCORE.INTER>
-9.32102

>  <SCORE.INTER.CONST>
1

>  <SCORE.INTER.POLAR>
-1.11048

>  <SCORE.INTER.REPUL>
0.197116

>  <SCORE.INTER.ROT>
4

>  <SCORE.INTER.VDW>
-15.931

>  <SCORE.INTER.norm>
-0.582564

>  <SCORE.INTRA>
-0.0737636

>  <SCORE.INTRA.DIHEDRAL>
1.91893

>  <SCORE.INTRA.DIHEDRAL.0>
1.26949

>  <SCORE.INTRA.POLAR>
0

>  <SCORE.INTRA.POLAR.0>
0

>  <SCORE.INTRA.REPUL>
0

>  <SCORE.INTRA.REPUL.0>
0

>  <SCORE.INTRA.VDW>
-1.03323

>  <SCORE.INTRA.VDW.0>
-0.0909085

>  <SCORE.INTRA.norm>
-0.00461022

>  <SCORE.RESTR>
0

>  <SCORE.RESTR.CAVITY>
0

>  <SCORE.RESTR.norm>
0

>  <SCORE.SYSTEM>
-1.5134

>  <SCORE.SYSTEM.CONST>
0

>  <SCORE.SYSTEM.DIHEDRAL>
0.412733

>  <SCORE.SYSTEM.POLAR>
-0.503067

>  <SCORE.SYSTEM.VDW>
-0.00933953

>  <SCORE.SYSTEM.norm>
-0.0945876

>  <SCORE.heavy>
16

>  <SCORE.norm>
-0.681762

>  <enum_code>
M

>  <enum_smi>
CCC(CC)[NH2+]c1ncnc2c1[nH+]cn2C

>  <sha256>
1c5e02397d5873f6efa1b3fea650d685ce255b2bb069a261985e6139479ba70b

>  <std_smi>
CCC(CC)Nc1ncnc2c1ncn2C

>  <uuid>
497f83fa-28a3-4a8f-ab5d-c5c733991559

$$$$
8ea72feb-54af-4da6-97a8-25fe125c0baf
  rDOCK(R)          3D
libRbt.so/2013.1/901 2013/11/27
 19 20  0  0  0  0  0  0  0  0999 V2000
   -3.6367   24.8013    5.4349 C   0  0  0  0  0  0
   -3.1667   26.2303    5.1872 C   0  0  0  0  0  0
   -1.6829   26.3121    4.7919 C   0  0  0  0  0  0
   -0.7146   26.1695    5.9793 C   0  0  0  0  0  0
   -0.4882   24.7238    6.4011 C   0  0  0  0  0  0
   -1.3884   27.5387    4.0452 N   0  0  0  0  0  0
   -1.5973   28.8595    4.3099 C   0  0  0  0  0  0
   -2.0630   29.3180    5.4778 N   0  3  0  0  0  0
   -2.2885   30.5986    5.7941 C   0  0  0  0  0  0
   -2.0554   31.5820    4.9219 N   0  3  0  0  0  0
   -1.5827   31.2096    3.7115 C   0  0  0  0  0  0
   -1.3476   29.8887    3.3793 C   0  0  0  0  0  0
   -0.8755   29.8163    2.0969 N   0  0  0  0  0  0
   -0.8216   31.0559    1.6545 C   0  0  0  0  0  0
   -1.2445   31.9452    2.6071 N   0  0  0  0  0  0
   -1.3061   33.3772    2.4370 C   0  0  0  0  0  0
   -0.9365   27.3641    3.1374 H   0  0  0  0  0  0
   -2.2585   28.6064    6.1799 H   0  0  0  0  0  0
   -2.2252   32.5639    5.1555 H   0  0  0  0  0  0
  1  2  1  0  0  0
  2  3  1  0  0  0
  3  4  1  0  0  0
  4  5  1  0  0  0
  3  6  1  0  0  0
  6  7  1  0  0  0
  7  8  2  0  0  0
  8  9  1  0  0  0
  9 10  2  0  0  0
 10 11  1  0  0  0
 11 12  2  0  0  0
 12 13  1  0  0  0
 13 14  2  0  0  0
 14 15  1  0  0  0
 15 16  1  0  0  0
 12  7  1  0  0  0
 15 11  1  0  0  0
  6 17  1  0  0  0
  8 18  1  0  0  0
 10 19  1  0  0  0
M  END
>  <CHROM.0>
-59.88758699,67.92815150

>  <CHROM.1>
-77.98550487,80.55222606,54.23361606,6.29626130,-1.65006772,28.92017184,4.29414159
1.76816468,-1.13022237,2.91683051

>  <Name>
8ea72feb-54af-4da6-97a8-25fe125c0baf

>  <RI>
2.30454e+07

>  <Rbt.Current_Directory>
/data/work/jku/5V6S/work/40/8dba899c20c42488f2b1a17844994e

>  <Rbt.Executable>
rbdock ($Id: //depot/dev/client3/rdock/2013.1/src/exe/rbdock.cxx#4 $)

>  <Rbt.Library>
libRbt.so (2013.1, Build901 2013/11/27)

>  <Rbt.Parameter_File>
/rDock_2013.1_src/data/scripts/dock.prm

>  <Rbt.Receptor>
docking.prm

>  <SCORE>
-13.1942

>  <SCORE.INTER>
-13.4231

>  <SCORE.INTER.CONST>
1

>  <SCORE.INTER.POLAR>
-1.34164

>  <SCORE.INTER.REPUL>
0.0896014

>  <SCORE.INTER.ROT>
4

>  <SCORE.INTER.VDW>
-18.7095

>  <SCORE.INTER.norm>
-0.838943

>  <SCORE.INTRA>
1.73796

>  <SCORE.INTRA.DIHEDRAL>
2.47526

>  <SCORE.INTRA.DIHEDRAL.0>
2.85231

>  <SCORE.INTRA.POLAR>
0

>  <SCORE.INTRA.POLAR.0>
0

>  <SCORE.INTRA.REPUL>
0

>  <SCORE.INTRA.REPUL.0>
0

>  <SCORE.INTRA.VDW>
0.500324

>  <SCORE.INTRA.VDW.0>
-0.955996

>  <SCORE.INTRA.norm>
0.108622

>  <SCORE.RESTR>
0

>  <SCORE.RESTR.CAVITY>
0

>  <SCORE.RESTR.norm>
0

>  <SCORE.SYSTEM>
-1.50907

>  <SCORE.SYSTEM.CONST>
0

>  <SCORE.SYSTEM.DIHEDRAL>
0.313382

>  <SCORE.SYSTEM.POLAR>
-0.501862

>  <SCORE.SYSTEM.VDW>
0.0405685

>  <SCORE.SYSTEM.norm>
-0.094317

>  <SCORE.heavy>
16

>  <SCORE.norm>
-0.824638

>  <enum_code>
M

>  <enum_smi>
CCC(CC)Nc1[nH+]c[nH+]c2c1ncn2C

>  <sha256>
1c5e02397d5873f6efa1b3fea650d685ce255b2bb069a261985e6139479ba70b

>  <std_smi>
CCC(CC)Nc1ncnc2c1ncn2C

>  <uuid>
8ea72feb-54af-4da6-97a8-25fe125c0baf

$$$$
8ea72feb-54af-4da6-97a8-25fe125c0baf
  rDOCK(R)          3D
libRbt.so/2013.1/901 2013/11/27
 19 20  0  0  0  0  0  0  0  0999 V2000
   -5.0996   29.0797    5.5802 C   0  0  0  0  0  0
   -4.1552   28.6062    4.4811 C   0  0  0  0  0  0
   -2.6850   28.9582    4.7628 C   0  0  0  0  0  0
   -2.1046   28.2568    6.0034 C   0  0  0  0  0  0
   -1.9234   26.7563    5.8167 C   0  0  0  0  0  0
   -2.4848   30.4069    4.8624 N   0  0  0  0  0  0
   -1.8005   31.3044    4.0978 C   0  0  0  0  0  0
   -1.6050   32.5812    4.4479 N   0  3  0  0  0  0
   -0.9448   33.5055    3.7402 C   0  0  0  0  0  0
   -0.3954   33.2156    2.5586 N   0  3  0  0  0  0
   -0.5449   31.9443    2.1242 C   0  0  0  0  0  0
   -1.2254   30.9854    2.8507 C   0  0  0  0  0  0
   -1.2155   29.8003    2.1666 N   0  0  0  0  0  0
   -0.5484   30.0242    1.0531 C   0  0  0  0  0  0
   -0.1173   31.3228    0.9814 N   0  0  0  0  0  0
    0.6407   31.8869   -0.1098 C   0  0  0  0  0  0
   -2.9531   30.8276    5.6764 H   0  0  0  0  0  0
   -2.0061   32.8551    5.3432 H   0  0  0  0  0  0
    0.1110   33.9164    2.0109 H   0  0  0  0  0  0
  1  2  1  0  0  0
  2  3  1  0  0  0
  3  4  1  0  0  0
  4  5  1  0  0  0
  3  6  1  0  0  0
  6  7  1  0  0  0
  7  8  2  0  0  0
  8  9  1  0  0  0
  9 10  2  0  0  0
 10 11  1  0  0  0
 11 12  2  0  0  0
 12 13  1  0  0  0
 13 14  2  0  0  0
 14 15  1  0  0  0
 15 16  1  0  0  0
 12  7  1  0  0  0
 15 11  1  0  0  0
  6 17  1  0  0  0
  8 18  1  0  0  0
 10 19  1  0  0  0
M  END
>  <CHROM.0>
-59.88758699,69.27645648

>  <CHROM.1>
64.47314832,69.52877775,-113.95868507,-171.68161512,-1.66025851,30.52095211
3.49570887,2.65047663,-0.97678947,-2.95935969

>  <Name>
8ea72feb-54af-4da6-97a8-25fe125c0baf

>  <RI>
2.30454e+07

>  <Rbt.Current_Directory>
/data/work/jku/5V6S/work/40/8dba899c20c42488f2b1a17844994e

>  <Rbt.Executable>
rbdock ($Id: //depot/dev/client3/rdock/2013.1/src/exe/rbdock.cxx#4 $)

>  <Rbt.Library>
libRbt.so (2013.1, Build901 2013/11/27)

>  <Rbt.Parameter_File>
/rDock_2013.1_src/data/scripts/dock.prm

>  <Rbt.Receptor>
docking.prm

>  <SCORE>
-11.5168

>  <SCORE.INTER>
-11.0864

>  <SCORE.INTER.CONST>
1

>  <SCORE.INTER.POLAR>
-0.579336

>  <SCORE.INTER.REPUL>
0

>  <SCORE.INTER.ROT>
4

>  <SCORE.INTER.VDW>
-18.5166

>  <SCORE.INTER.norm>
-0.692897

>  <SCORE.INTRA>
1.08262

>  <SCORE.INTRA.DIHEDRAL>
0.390173

>  <SCORE.INTRA.DIHEDRAL.0>
2.85231

>  <SCORE.INTRA.POLAR>
0

>  <SCORE.INTRA.POLAR.0>
0

>  <SCORE.INTRA.REPUL>
0

>  <SCORE.INTRA.REPUL.0>
0

>  <SCORE.INTRA.VDW>
0.887531

>  <SCORE.INTRA.VDW.0>
-0.955996

>  <SCORE.INTRA.norm>
0.0676636

>  <SCORE.RESTR>
0

>  <SCORE.RESTR.CAVITY>
0

>  <SCORE.RESTR.norm>
0

>  <SCORE.SYSTEM>
-1.51304

>  <SCORE.SYSTEM.CONST>
0

>  <SCORE.SYSTEM.DIHEDRAL>
0.424001

>  <SCORE.SYSTEM.POLAR>
-0.503124

>  <SCORE.SYSTEM.VDW>
-0.0144139

>  <SCORE.SYSTEM.norm>
-0.0945647

>  <SCORE.heavy>
16

>  <SCORE.norm>
-0.719798

>  <enum_code>
M

>  <enum_smi>
CCC(CC)Nc1[nH+]c[nH+]c2c1ncn2C

>  <sha256>
1c5e02397d5873f6efa1b3fea650d685ce255b2bb069a261985e6139479ba70b

>  <std_smi>
CCC(CC)Nc1ncnc2c1ncn2C

>  <uuid>
8ea72feb-54af-4da6-97a8-25fe125c0baf

$$$$
8ea72feb-54af-4da6-97a8-25fe125c0baf
  rDOCK(R)          3D
libRbt.so/2013.1/901 2013/11/27
 19 20  0  0  0  0  0  0  0  0999 V2000
   -0.4461   25.6844    6.0662 C   0  0  0  0  0  0
   -1.6595   25.3614    5.2016 C   0  0  0  0  0  0
   -2.5667   26.5803    4.9646 C   0  0  0  0  0  0
   -3.8775   26.2463    4.2311 C   0  0  0  0  0  0
   -4.8708   25.4786    5.0931 C   0  0  0  0  0  0
   -1.8570   27.6554    4.2652 N   0  0  0  0  0  0
   -1.8181   29.0072    4.4368 C   0  0  0  0  0  0
   -2.1440   29.6199    5.5811 N   0  3  0  0  0  0
   -2.1263   30.9387    5.8077 C   0  0  0  0  0  0
   -1.7623   31.8030    4.8575 N   0  3  0  0  0  0
   -1.4163   31.2706    3.6642 C   0  0  0  0  0  0
   -1.4323   29.9094    3.4245 C   0  0  0  0  0  0
   -1.0372   29.6667    2.1369 N   0  0  0  0  0  0
   -0.7854   30.8437    1.6017 C   0  0  0  0  0  0
   -1.0027   31.8570    2.4979 N   0  0  0  0  0  0
   -0.8186   33.2620    2.2232 C   0  0  0  0  0  0
   -1.2748   27.3194    3.4861 H   0  0  0  0  0  0
   -2.4307   29.0042    6.3402 H   0  0  0  0  0  0
   -1.7461   32.8130    5.0223 H   0  0  0  0  0  0
  1  2  1  0  0  0
  2  3  1  0  0  0
  3  4  1  0  0  0
  4  5  1  0  0  0
  3  6  1  0  0  0
  6  7  1  0  0  0
  7  8  2  0  0  0
  8  9  1  0  0  0
  9 10  2  0  0  0
 10 11  1  0  0  0
 11 12  2  0  0  0
 12 13  1  0  0  0
 13 14  2  0  0  0
 14 15  1  0  0  0
 15 16  1  0  0  0
 12  7  1  0  0  0
 15 11  1  0  0  0
  6 17  1  0  0  0
  8 18  1  0  0  0
 10 19  1  0  0  0
M  END
>  <CHROM.0>
-59.88758699,67.60773176

>  <CHROM.1>
-173.42554504,71.85150157,-137.07091756,21.24769701,-1.86204674,29.03734509
4.15209446,2.36885220,-1.22299923,-2.72966514

>  <Name>
8ea72feb-54af-4da6-97a8-25fe125c0baf

>  <RI>
2.30454e+07

>  <Rbt.Current_Directory>
/data/work/jku/5V6S/work/40/8dba899c20c42488f2b1a17844994e

>  <Rbt.Executable>
rbdock ($Id: //depot/dev/client3/rdock/2013.1/src/exe/rbdock.cxx#4 $)

>  <Rbt.Library>
libRbt.so (2013.1, Build901 2013/11/27)

>  <Rbt.Parameter_File>
/rDock_2013.1_src/data/scripts/dock.prm

>  <Rbt.Receptor>
docking.prm

>  <SCORE>
-13.4492

>  <SCORE.INTER>
-13.013

>  <SCORE.INTER.CONST>
1

>  <SCORE.INTER.POLAR>
-1.34164

>  <SCORE.INTER.REPUL>
0.0322226

>  <SCORE.INTER.ROT>
4

>  <SCORE.INTER.VDW>
-18.0125

>  <SCORE.INTER.norm>
-0.813311

>  <SCORE.INTRA>
1.06934

>  <SCORE.INTRA.DIHEDRAL>
2.08859

>  <SCORE.INTRA.DIHEDRAL.0>
2.85231

>  <SCORE.INTRA.POLAR>
0

>  <SCORE.INTRA.POLAR.0>
0

>  <SCORE.INTRA.REPUL>
0

>  <SCORE.INTRA.REPUL.0>
0

>  <SCORE.INTRA.VDW>
0.0250468

>  <SCORE.INTRA.VDW.0>
-0.955996

>  <SCORE.INTRA.norm>
0.0668339

>  <SCORE.RESTR>
0

>  <SCORE.RESTR.CAVITY>
0

>  <SCORE.RESTR.norm>
0

>  <SCORE.SYSTEM>
-1.50556

>  <SCORE.SYSTEM.CONST>
0

>  <SCORE.SYSTEM.DIHEDRAL>
0.289489

>  <SCORE.SYSTEM.POLAR>
-0.501342

>  <SCORE.SYSTEM.VDW>
0.0542626

>  <SCORE.SYSTEM.norm>
-0.0940973

>  <SCORE.heavy>
16

>  <SCORE.norm>
-0.840574

>  <enum_code>
M

>  <enum_smi>
CCC(CC)Nc1[nH+]c[nH+]c2c1ncn2C

>  <sha256>
1c5e02397d5873f6efa1b3fea650d685ce255b2bb069a261985e6139479ba70b

>  <std_smi>
CCC(CC)Nc1ncnc2c1ncn2C

>  <uuid>
8ea72feb-54af-4da6-97a8-25fe125c0baf

$$$$
8ea72feb-54af-4da6-97a8-25fe125c0baf
  rDOCK(R)          3D
libRbt.so/2013.1/901 2013/11/27
 19 20  0  0  0  0  0  0  0  0999 V2000
   -2.3329   28.1098    3.7067 C   0  0  0  0  0  0
   -2.3528   26.6390    4.1075 C   0  0  0  0  0  0
   -3.0520   26.3957    5.4553 C   0  0  0  0  0  0
   -2.9708   24.9387    5.9436 C   0  0  0  0  0  0
   -1.5547   24.4975    6.2885 C   0  0  0  0  0  0
   -4.4480   26.8420    5.4293 N   0  0  0  0  0  0
   -5.5138   26.5121    4.6460 C   0  0  0  0  0  0
   -6.5959   27.2860    4.5004 N   0  3  0  0  0  0
   -7.6695   27.0151    3.7488 C   0  0  0  0  0  0
   -7.7567   25.8862    3.0417 N   0  3  0  0  0  0
   -6.7053   25.0413    3.1300 C   0  0  0  0  0  0
   -5.5938   25.3158    3.9044 C   0  0  0  0  0  0
   -4.6980   24.2865    3.8004 N   0  0  0  0  0  0
   -5.2427   23.4060    2.9860 C   0  0  0  0  0  0
   -6.4723   23.8234    2.5490 N   0  0  0  0  0  0
   -7.3267   23.0879    1.6476 C   0  0  0  0  0  0
   -4.6627   27.5494    6.1451 H   0  0  0  0  0  0
   -6.5803   28.1613    5.0212 H   0  0  0  0  0  0
   -8.5741   25.6711    2.4645 H   0  0  0  0  0  0
  1  2  1  0  0  0
  2  3  1  0  0  0
  3  4  1  0  0  0
  4  5  1  0  0  0
  3  6  1  0  0  0
  6  7  1  0  0  0
  7  8  2  0  0  0
  8  9  1  0  0  0
  9 10  2  0  0  0
 10 11  1  0  0  0
 11 12  2  0  0  0
 12 13  1  0  0  0
 13 14  2  0  0  0
 14 15  1  0  0  0
 15 16  1  0  0  0
 12  7  1  0  0  0
 15 11  1  0  0  0
  6 17  1  0  0  0
  8 18  1  0  0  0
 10 19  1  0  0  0
M  END
>  <CHROM.0>
-59.88758699,-179.81349913

>  <CHROM.1>
-174.64990437,66.26811767,57.92161067,-159.39054969,-4.99235992,25.58234147
4.06401779,0.39300077,-0.41058424,0.27907858

>  <Name>
8ea72feb-54af-4da6-97a8-25fe125c0baf

>  <RI>
2.30454e+07

>  <Rbt.Current_Directory>
/data/work/jku/5V6S/work/40/8dba899c20c42488f2b1a17844994e

>  <Rbt.Executable>
rbdock ($Id: //depot/dev/client3/rdock/2013.1/src/exe/rbdock.cxx#4 $)

>  <Rbt.Library>
libRbt.so (2013.1, Build901 2013/11/27)

>  <Rbt.Parameter_File>
/rDock_2013.1_src/data/scripts/dock.prm

>  <Rbt.Receptor>
docking.prm

>  <SCORE>
-10.8928

>  <SCORE.INTER>
-11.4154

>  <SCORE.INTER.CONST>
1

>  <SCORE.INTER.POLAR>
-1.54445

>  <SCORE.INTER.REPUL>
0

>  <SCORE.INTER.ROT>
4

>  <SCORE.INTER.VDW>
-15.5643

>  <SCORE.INTER.norm>
-0.713461

>  <SCORE.INTRA>
0.794209

>  <SCORE.INTRA.DIHEDRAL>
1.55209

>  <SCORE.INTRA.DIHEDRAL.0>
2.85231

>  <SCORE.INTRA.POLAR>
0

>  <SCORE.INTRA.POLAR.0>
0

>  <SCORE.INTRA.REPUL>
0

>  <SCORE.INTRA.REPUL.0>
0

>  <SCORE.INTRA.VDW>
0.0181635

>  <SCORE.INTRA.VDW.0>
-0.955996

>  <SCORE.INTRA.norm>
0.0496381

>  <SCORE.RESTR>
0

>  <SCORE.RESTR.CAVITY>
0

>  <SCORE.RESTR.norm>
0

>  <SCORE.SYSTEM>
-0.271655

>  <SCORE.SYSTEM.CONST>
0

>  <SCORE.SYSTEM.DIHEDRAL>
0.00780293

>  <SCORE.SYSTEM.VDW>
-0.275556

>  <SCORE.SYSTEM.norm>
-0.0169784

>  <SCORE.heavy>
16

>  <SCORE.norm>
-0.680801

>  <enum_code>
M

>  <enum_smi>
CCC(CC)Nc1[nH+]c[nH+]c2c1ncn2C

>  <sha256>
1c5e02397d5873f6efa1b3fea650d685ce255b2bb069a261985e6139479ba70b

>  <std_smi>
CCC(CC)Nc1ncnc2c1ncn2C

>  <uuid>
8ea72feb-54af-4da6-97a8-25fe125c0baf

$$$$
8ea72feb-54af-4da6-97a8-25fe125c0baf
  rDOCK(R)          3D
libRbt.so/2013.1/901 2013/11/27
 19 20  0  0  0  0  0  0  0  0999 V2000
   -4.6315   26.9207    4.7757 C   0  0  0  0  0  0
   -3.6579   26.4993    5.8705 C   0  0  0  0  0  0
   -2.1909   26.5284    5.4102 C   0  0  0  0  0  0
   -1.1954   26.0357    6.4752 C   0  0  0  0  0  0
    0.1619   25.6543    5.8996 C   0  0  0  0  0  0
   -1.8003   27.8573    4.9307 N   0  0  0  0  0  0
   -1.4005   28.3250    3.7142 C   0  0  0  0  0  0
   -1.0041   27.5353    2.7091 N   0  3  0  0  0  0
   -0.6010   27.9357    1.4974 C   0  0  0  0  0  0
   -0.5572   29.2294    1.1712 N   0  3  0  0  0  0
   -0.9408   30.1021    2.1295 C   0  0  0  0  0  0
   -1.3582   29.6945    3.3825 C   0  0  0  0  0  0
   -1.6812   30.7902    4.1362 N   0  0  0  0  0  0
   -1.4689   31.8396    3.3690 C   0  0  0  0  0  0
   -1.0150   31.4695    2.1304 N   0  0  0  0  0  0
   -0.6889   32.3805    1.0593 C   0  0  0  0  0  0
   -1.8315   28.5797    5.6628 H   0  0  0  0  0  0
   -1.0178   26.5362    2.9068 H   0  0  0  0  0  0
   -0.2501   29.5443    0.2470 H   0  0  0  0  0  0
  1  2  1  0  0  0
  2  3  1  0  0  0
  3  4  1  0  0  0
  4  5  1  0  0  0
  3  6  1  0  0  0
  6  7  1  0  0  0
  7  8  2  0  0  0
  8  9  1  0  0  0
  9 10  2  0  0  0
 10 11  1  0  0  0
 11 12  2  0  0  0
 12 13  1  0  0  0
 13 14  2  0  0  0
 14 15  1  0  0  0
 15 16  1  0  0  0
 12  7  1  0  0  0
 15 11  1  0  0  0
  6 17  1  0  0  0
  8 18  1  0  0  0
 10 19  1  0  0  0
M  END
>  <CHROM.0>
-59.88758699,67.99176047

>  <CHROM.1>
-176.94778967,161.96191197,-116.33226004,-15.13910177,-1.50701710,28.64307524
3.67942989,1.82351754,-0.67010927,2.63758094

>  <Name>
8ea72feb-54af-4da6-97a8-25fe125c0baf

>  <RI>
2.30454e+07

>  <Rbt.Current_Directory>
/data/work/jku/5V6S/work/40/8dba899c20c42488f2b1a17844994e

>  <Rbt.Executable>
rbdock ($Id: //depot/dev/client3/rdock/2013.1/src/exe/rbdock.cxx#4 $)

>  <Rbt.Library>
libRbt.so (2013.1, Build901 2013/11/27)

>  <Rbt.Parameter_File>
/rDock_2013.1_src/data/scripts/dock.prm

>  <Rbt.Receptor>
docking.prm

>  <SCORE>
-13.9445

>  <SCORE.INTER>
-12.6904

>  <SCORE.INTER.CONST>
1

>  <SCORE.INTER.POLAR>
-1.31411

>  <SCORE.INTER.REPUL>
0

>  <SCORE.INTER.ROT>
4

>  <SCORE.INTER.VDW>
-17.6225

>  <SCORE.INTER.norm>
-0.793153

>  <SCORE.INTRA>
0.255602

>  <SCORE.INTRA.DIHEDRAL>
1.84579

>  <SCORE.INTRA.DIHEDRAL.0>
2.85231

>  <SCORE.INTRA.POLAR>
0

>  <SCORE.INTRA.POLAR.0>
0

>  <SCORE.INTRA.REPUL>
0

>  <SCORE.INTRA.REPUL.0>
0

>  <SCORE.INTRA.VDW>
-0.667294

>  <SCORE.INTRA.VDW.0>
-0.955996

>  <SCORE.INTRA.norm>
0.0159751

>  <SCORE.RESTR>
0

>  <SCORE.RESTR.CAVITY>
0

>  <SCORE.RESTR.norm>
0

>  <SCORE.SYSTEM>
-1.50965

>  <SCORE.SYSTEM.CONST>
0

>  <SCORE.SYSTEM.DIHEDRAL>
0.318236

>  <SCORE.SYSTEM.POLAR>
-0.501955

>  <SCORE.SYSTEM.VDW>
0.0378792

>  <SCORE.SYSTEM.norm>
-0.0943531

>  <SCORE.heavy>
16

>  <SCORE.norm>
-0.871531

>  <enum_code>
M

>  <enum_smi>
CCC(CC)Nc1[nH+]c[nH+]c2c1ncn2C

>  <sha256>
1c5e02397d5873f6efa1b3fea650d685ce255b2bb069a261985e6139479ba70b

>  <std_smi>
CCC(CC)Nc1ncnc2c1ncn2C

>  <uuid>
8ea72feb-54af-4da6-97a8-25fe125c0baf

$$$$
325805a0-f722-4d59-8995-38210e88ad91
  rDOCK(R)          3D
libRbt.so/2013.1/901 2013/11/27
 18 19  0  0  0  0  0  0  0  0999 V2000
   -2.8174   24.1048    5.7911 C   0  0  0  0  0  0
   -2.3444   25.5499    5.8551 C   0  0  0  0  0  0
   -1.5000   25.9723    4.6384 C   0  0  0  0  0  0
   -0.0540   25.4315    4.6534 C   0  0  0  0  0  0
    0.0958   23.9653    4.2648 C   0  0  0  0  0  0
   -1.4663   27.4330    4.5599 N   0  0  0  0  0  0
   -1.1567   28.0664    3.3715 C   0  0  0  0  0  0
   -0.7198   27.3618    2.2880 N   0  0  0  0  0  0
   -0.4692   28.0046    1.1316 C   0  0  0  0  0  0
   -0.6004   29.3147    0.9285 N   0  3  0  0  0  0
   -1.0198   30.0313    1.9964 C   0  0  0  0  0  0
   -1.3069   29.4649    3.2256 C   0  0  0  0  0  0
   -1.7024   30.4428    4.1086 N   0  0  0  0  0  0
   -1.6639   31.5711    3.4316 C   0  0  0  0  0  0
   -1.2544   31.3706    2.1400 N   0  0  0  0  0  0
   -1.1090   32.4004    1.1426 C   0  0  0  0  0  0
   -1.1403   27.9366    5.3834 H   0  0  0  0  0  0
   -0.3947   29.7302    0.0256 H   0  0  0  0  0  0
  1  2  1  0  0  0
  2  3  1  0  0  0
  3  4  1  0  0  0
  4  5  1  0  0  0
  3  6  1  0  0  0
  6  7  1  0  0  0
  7  8  2  0  0  0
  8  9  1  0  0  0
  9 10  2  0  0  0
 10 11  1  0  0  0
 11 12  2  0  0  0
 12 13  1  0  0  0
 13 14  2  0  0  0
 14 15  1  0  0  0
 15 16  1  0  0  0
 12  7  1  0  0  0
 15 11  1  0  0  0
  6 17  1  0  0  0
 10 18  1  0  0  0
M  END
>  <CHROM.0>
-59.88758699,68.19034063

>  <CHROM.1>
-75.88974482,77.15790628,-159.34327531,-7.95179014,-1.19095954,28.10950043
3.36215468,1.63706405,-1.02515622,2.73656195

>  <Name>
325805a0-f722-4d59-8995-38210e88ad91

>  <RI>
1.43086e+07

>  <Rbt.Current_Directory>
/data/work/jku/5V6S/work/40/8dba899c20c42488f2b1a17844994e

>  <Rbt.Executable>
rbdock ($Id: //depot/dev/client3/rdock/2013.1/src/exe/rbdock.cxx#4 $)

>  <Rbt.Library>
libRbt.so (2013.1, Build901 2013/11/27)

>  <Rbt.Parameter_File>
/rDock_2013.1_src/data/scripts/dock.prm

>  <Rbt.Receptor>
docking.prm

>  <SCORE>
-15.9139

>  <SCORE.INTER>
-13.5929

>  <SCORE.INTER.CONST>
1

>  <SCORE.INTER.POLAR>
-1.14489

>  <SCORE.INTER.REPUL>
0

>  <SCORE.INTER.ROT>
4

>  <SCORE.INTER.VDW>
-19.1003

>  <SCORE.INTER.norm>
-0.849557

>  <SCORE.INTRA>
-0.809818

>  <SCORE.INTRA.DIHEDRAL>
0.488788

>  <SCORE.INTRA.DIHEDRAL.0>
2.41933

>  <SCORE.INTRA.POLAR>
0

>  <SCORE.INTRA.POLAR.0>
0

>  <SCORE.INTRA.REPUL>
0

>  <SCORE.INTRA.REPUL.0>
0

>  <SCORE.INTRA.VDW>
-1.05421

>  <SCORE.INTRA.VDW.0>
1.09835

>  <SCORE.INTRA.norm>
-0.0506136

>  <SCORE.RESTR>
0

>  <SCORE.RESTR.CAVITY>
0

>  <SCORE.RESTR.norm>
0

>  <SCORE.SYSTEM>
-1.51121

>  <SCORE.SYSTEM.CONST>
0

>  <SCORE.SYSTEM.DIHEDRAL>
0.333624

>  <SCORE.SYSTEM.POLAR>
-0.502224

>  <SCORE.SYSTEM.VDW>
0.0295449

>  <SCORE.SYSTEM.norm>
-0.0944503

>  <SCORE.heavy>
16

>  <SCORE.norm>
-0.994621

>  <enum_code>
M

>  <enum_smi>
CCC(CC)Nc1nc[nH+]c2c1ncn2C

>  <sha256>
1c5e02397d5873f6efa1b3fea650d685ce255b2bb069a261985e6139479ba70b

>  <std_smi>
CCC(CC)Nc1ncnc2c1ncn2C

>  <uuid>
325805a0-f722-4d59-8995-38210e88ad91

$$$$
325805a0-f722-4d59-8995-38210e88ad91
  rDOCK(R)          3D
libRbt.so/2013.1/901 2013/11/27
 18 19  0  0  0  0  0  0  0  0999 V2000
   -5.3385   27.0821    4.4874 C   0  0  0  0  0  0
   -4.7380   28.3450    5.0879 C   0  0  0  0  0  0
   -3.3519   28.6958    4.5157 C   0  0  0  0  0  0
   -2.6457   29.8630    5.2387 C   0  0  0  0  0  0
   -2.0276   29.5135    6.5873 C   0  0  0  0  0  0
   -3.4859   29.0208    3.0953 N   0  0  0  0  0  0
   -2.3672   29.1476    2.2943 C   0  0  0  0  0  0
   -1.7696   28.0552    1.7367 N   0  0  0  0  0  0
   -0.7074   28.2178    0.9252 C   0  0  0  0  0  0
   -0.1492   29.3837    0.6029 N   0  3  0  0  0  0
   -0.7206   30.4771    1.1577 C   0  0  0  0  0  0
   -1.8160   30.4163    2.0007 C   0  0  0  0  0  0
   -2.1631   31.6841    2.4062 N   0  0  0  0  0  0
   -1.3064   32.4931    1.8194 C   0  0  0  0  0  0
   -0.4087   31.8037    1.0480 N   0  0  0  0  0  0
    0.6541   32.3960    0.2760 C   0  0  0  0  0  0
   -4.2463   29.6448    2.8297 H   0  0  0  0  0  0
    0.6514   29.4294   -0.0193 H   0  0  0  0  0  0
  1  2  1  0  0  0
  2  3  1  0  0  0
  3  4  1  0  0  0
  4  5  1  0  0  0
  3  6  1  0  0  0
  6  7  1  0  0  0
  7  8  2  0  0  0
  8  9  1  0  0  0
  9 10  2  0  0  0
 10 11  1  0  0  0
 11 12  2  0  0  0
 12 13  1  0  0  0
 13 14  2  0  0  0
 14 15  1  0  0  0
 15 16  1  0  0  0
 12  7  1  0  0  0
 15 11  1  0  0  0
  6 17  1  0  0  0
 10 18  1  0  0  0
M  END
>  <CHROM.0>
-59.88758699,69.10893797

>  <CHROM.1>
-172.41618970,76.62782433,-168.87219924,83.38061351,-2.03628516,29.77667568
2.73656155,3.06415231,0.93749594,0.70627923

>  <Name>
325805a0-f722-4d59-8995-38210e88ad91

>  <RI>
1.43086e+07

>  <Rbt.Current_Directory>
/data/work/jku/5V6S/work/40/8dba899c20c42488f2b1a17844994e

>  <Rbt.Executable>
rbdock ($Id: //depot/dev/client3/rdock/2013.1/src/exe/rbdock.cxx#4 $)

>  <Rbt.Library>
libRbt.so (2013.1, Build901 2013/11/27)

>  <Rbt.Parameter_File>
/rDock_2013.1_src/data/scripts/dock.prm

>  <Rbt.Receptor>
docking.prm

>  <SCORE>
-9.91978

>  <SCORE.INTER>
-5.99795

>  <SCORE.INTER.CONST>
1

>  <SCORE.INTER.POLAR>
0

>  <SCORE.INTER.REPUL>
0

>  <SCORE.INTER.ROT>
4

>  <SCORE.INTER.VDW>
-15.3979

>  <SCORE.INTER.norm>
-0.374872

>  <SCORE.INTRA>
-2.40835

>  <SCORE.INTRA.DIHEDRAL>
-0.374261

>  <SCORE.INTRA.DIHEDRAL.0>
2.41933

>  <SCORE.INTRA.POLAR>
0

>  <SCORE.INTRA.POLAR.0>
0

>  <SCORE.INTRA.REPUL>
0

>  <SCORE.INTRA.REPUL.0>
0

>  <SCORE.INTRA.VDW>
-2.22122

>  <SCORE.INTRA.VDW.0>
1.09835

>  <SCORE.INTRA.norm>
-0.150522

>  <SCORE.RESTR>
0

>  <SCORE.RESTR.CAVITY>
0

>  <SCORE.RESTR.norm>
0

>  <SCORE.SYSTEM>
-1.51348

>  <SCORE.SYSTEM.CONST>
0

>  <SCORE.SYSTEM.DIHEDRAL>
0.409382

>  <SCORE.SYSTEM.POLAR>
-0.503048

>  <SCORE.SYSTEM.VDW>
-0.00781047

>  <SCORE.SYSTEM.norm>
-0.0945926

>  <SCORE.heavy>
16

>  <SCORE.norm>
-0.619986

>  <enum_code>
M

>  <enum_smi>
CCC(CC)Nc1nc[nH+]c2c1ncn2C

>  <sha256>
1c5e02397d5873f6efa1b3fea650d685ce255b2bb069a261985e6139479ba70b

>  <std_smi>
CCC(CC)Nc1ncnc2c1ncn2C

>  <uuid>
325805a0-f722-4d59-8995-38210e88ad91

$$$$
325805a0-f722-4d59-8995-38210e88ad91
  rDOCK(R)          3D
libRbt.so/2013.1/901 2013/11/27
 18 19  0  0  0  0  0  0  0  0999 V2000
   -5.0889   26.1144    4.4223 C   0  0  0  0  0  0
   -3.9767   27.1217    4.1686 C   0  0  0  0  0  0
   -2.5751   26.5871    4.5173 C   0  0  0  0  0  0
   -2.3630   26.2997    6.0193 C   0  0  0  0  0  0
   -1.0148   25.6870    6.3799 C   0  0  0  0  0  0
   -1.5676   27.5468    4.0644 N   0  0  0  0  0  0
   -1.7144   28.8959    4.3246 C   0  0  0  0  0  0
   -2.1456   29.3383    5.5411 N   0  0  0  0  0  0
   -2.2352   30.6612    5.7759 C   0  0  0  0  0  0
   -1.9428   31.6250    4.9040 N   0  3  0  0  0  0
   -1.5265   31.2044    3.6876 C   0  0  0  0  0  0
   -1.3975   29.8692    3.3490 C   0  0  0  0  0  0
   -0.9617   29.7579    2.0489 N   0  0  0  0  0  0
   -0.8225   30.9920    1.6127 C   0  0  0  0  0  0
   -1.1543   31.9078    2.5758 N   0  0  0  0  0  0
   -1.1082   33.3391    2.4157 C   0  0  0  0  0  0
   -1.1061   27.3540    3.1768 H   0  0  0  0  0  0
   -2.0325   32.6048    5.1533 H   0  0  0  0  0  0
  1  2  1  0  0  0
  2  3  1  0  0  0
  3  4  1  0  0  0
  4  5  1  0  0  0
  3  6  1  0  0  0
  6  7  1  0  0  0
  7  8  2  0  0  0
  8  9  1  0  0  0
  9 10  2  0  0  0
 10 11  1  0  0  0
 11 12  2  0  0  0
 12 13  1  0  0  0
 13 14  2  0  0  0
 14 15  1  0  0  0
 15 16  1  0  0  0
 12  7  1  0  0  0
 15 11  1  0  0  0
  6 17  1  0  0  0
 10 18  1  0  0  0
M  END
>  <CHROM.0>
-59.88758699,68.85802648

>  <CHROM.1>
-65.43600844,176.30514687,46.42362450,42.30699911,-1.99015102,29.15481112
4.12850471,2.59343947,1.25594986,1.73803989

>  <Name>
325805a0-f722-4d59-8995-38210e88ad91

>  <RI>
1.43086e+07

>  <Rbt.Current_Directory>
/data/work/jku/5V6S/work/40/8dba899c20c42488f2b1a17844994e

>  <Rbt.Executable>
rbdock ($Id: //depot/dev/client3/rdock/2013.1/src/exe/rbdock.cxx#4 $)

>  <Rbt.Library>
libRbt.so (2013.1, Build901 2013/11/27)

>  <Rbt.Parameter_File>
/rDock_2013.1_src/data/scripts/dock.prm

>  <Rbt.Receptor>
docking.prm

>  <SCORE>
-15.3911

>  <SCORE.INTER>
-12.4013

>  <SCORE.INTER.CONST>
1

>  <SCORE.INTER.POLAR>
-1.34164

>  <SCORE.INTER.REPUL>
0.104191

>  <SCORE.INTER.ROT>
4

>  <SCORE.INTER.VDW>
-17.7607

>  <SCORE.INTER.norm>
-0.775084

>  <SCORE.INTRA>
-1.4761

>  <SCORE.INTRA.DIHEDRAL>
-0.712729

>  <SCORE.INTRA.DIHEDRAL.0>
2.41933

>  <SCORE.INTRA.POLAR>
0

>  <SCORE.INTRA.POLAR.0>
0

>  <SCORE.INTRA.REPUL>
0

>  <SCORE.INTRA.REPUL.0>
0

>  <SCORE.INTRA.VDW>
-1.11973

>  <SCORE.INTRA.VDW.0>
1.09835

>  <SCORE.INTRA.norm>
-0.0922561

>  <SCORE.RESTR>
0

>  <SCORE.RESTR.CAVITY>
0

>  <SCORE.RESTR.norm>
0

>  <SCORE.SYSTEM>
-1.51366

>  <SCORE.SYSTEM.CONST>
0

>  <SCORE.SYSTEM.DIHEDRAL>
0.387947

>  <SCORE.SYSTEM.POLAR>
-0.502891

>  <SCORE.SYSTEM.VDW>
0.00219969

>  <SCORE.SYSTEM.norm>
-0.0946035

>  <SCORE.heavy>
16

>  <SCORE.norm>
-0.961944

>  <enum_code>
M

>  <enum_smi>
CCC(CC)Nc1nc[nH+]c2c1ncn2C

>  <sha256>
1c5e02397d5873f6efa1b3fea650d685ce255b2bb069a261985e6139479ba70b

>  <std_smi>
CCC(CC)Nc1ncnc2c1ncn2C

>  <uuid>
325805a0-f722-4d59-8995-38210e88ad91

$$$$
325805a0-f722-4d59-8995-38210e88ad91
  rDOCK(R)          3D
libRbt.so/2013.1/901 2013/11/27
 18 19  0  0  0  0  0  0  0  0999 V2000
   -3.7720   20.7346    4.2510 C   0  0  0  0  0  0
   -3.6988   21.9675    3.3617 C   0  0  0  0  0  0
   -2.6515   22.9965    3.8266 C   0  0  0  0  0  0
   -1.1982   22.4760    3.8009 C   0  0  0  0  0  0
   -0.1293   23.5169    4.1126 C   0  0  0  0  0  0
   -2.9800   23.4386    5.1822 N   0  0  0  0  0  0
   -2.9189   24.7771    5.5195 C   0  0  0  0  0  0
   -1.7661   25.3360    5.9887 N   0  0  0  0  0  0
   -1.7285   26.6531    6.2662 C   0  0  0  0  0  0
   -2.7458   27.5028    6.1332 N   0  3  0  0  0  0
   -3.9013   26.9633    5.6819 C   0  0  0  0  0  0
   -4.0411   25.6236    5.3656 C   0  0  0  0  0  0
   -5.3263   25.3764    4.9417 N   0  0  0  0  0  0
   -5.9474   26.5359    4.9919 C   0  0  0  0  0  0
   -5.1198   27.5327    5.4364 N   0  0  0  0  0  0
   -5.4940   28.9143    5.6024 C   0  0  0  0  0  0
   -2.7288   22.8164    5.9490 H   0  0  0  0  0  0
   -2.6425   28.4867    6.3604 H   0  0  0  0  0  0
  1  2  1  0  0  0
  2  3  1  0  0  0
  3  4  1  0  0  0
  4  5  1  0  0  0
  3  6  1  0  0  0
  6  7  1  0  0  0
  7  8  2  0  0  0
  8  9  1  0  0  0
  9 10  2  0  0  0
 10 11  1  0  0  0
 11 12  2  0  0  0
 12 13  1  0  0  0
 13 14  2  0  0  0
 14 15  1  0  0  0
 15 16  1  0  0  0
 12  7  1  0  0  0
 15 11  1  0  0  0
  6 17  1  0  0  0
 10 18  1  0  0  0
M  END
>  <CHROM.0>
-59.88758699,68.40235897

>  <CHROM.1>
62.91414751,173.74812246,-135.88390451,-89.14287429,-3.32059207,24.99211734
5.02031038,1.18045089,0.12747823,-2.79846640

>  <Name>
325805a0-f722-4d59-8995-38210e88ad91

>  <RI>
1.43086e+07

>  <Rbt.Current_Directory>
/data/work/jku/5V6S/work/40/8dba899c20c42488f2b1a17844994e

>  <Rbt.Executable>
rbdock ($Id: //depot/dev/client3/rdock/2013.1/src/exe/rbdock.cxx#4 $)

>  <Rbt.Library>
libRbt.so (2013.1, Build901 2013/11/27)

>  <Rbt.Parameter_File>
/rDock_2013.1_src/data/scripts/dock.prm

>  <Rbt.Receptor>
docking.prm

>  <SCORE>
-11.4409

>  <SCORE.INTER>
-8.11834

>  <SCORE.INTER.CONST>
1

>  <SCORE.INTER.POLAR>
0

>  <SCORE.INTER.REPUL>
0

>  <SCORE.INTER.ROT>
4

>  <SCORE.INTER.VDW>
-17.5183

>  <SCORE.INTER.norm>
-0.507396

>  <SCORE.INTRA>
-1.81012

>  <SCORE.INTRA.DIHEDRAL>
-0.431701

>  <SCORE.INTRA.DIHEDRAL.0>
2.41933

>  <SCORE.INTRA.POLAR>
0

>  <SCORE.INTRA.POLAR.0>
0

>  <SCORE.INTRA.REPUL>
0

>  <SCORE.INTRA.REPUL.0>
0

>  <SCORE.INTRA.VDW>
-1.59427

>  <SCORE.INTRA.VDW.0>
1.09835

>  <SCORE.INTRA.norm>
-0.113133

>  <SCORE.RESTR>
0

>  <SCORE.RESTR.CAVITY>
0

>  <SCORE.RESTR.norm>
0

>  <SCORE.SYSTEM>
-1.51245

>  <SCORE.SYSTEM.CONST>
0

>  <SCORE.SYSTEM.DIHEDRAL>
0.350443

>  <SCORE.SYSTEM.POLAR>
-0.502475

>  <SCORE.SYSTEM.VDW>
0.0207492

>  <SCORE.SYSTEM.norm>
-0.0945279

>  <SCORE.heavy>
16

>  <SCORE.norm>
-0.715057

>  <enum_code>
M

>  <enum_smi>
CCC(CC)Nc1nc[nH+]c2c1ncn2C

>  <sha256>
1c5e02397d5873f6efa1b3fea650d685ce255b2bb069a261985e6139479ba70b

>  <std_smi>
CCC(CC)Nc1ncnc2c1ncn2C

>  <uuid>
325805a0-f722-4d59-8995-38210e88ad91

$$$$
325805a0-f722-4d59-8995-38210e88ad91
  rDOCK(R)          3D
libRbt.so/2013.1/901 2013/11/27
 18 19  0  0  0  0  0  0  0  0999 V2000
   -6.4398   30.0184    5.1731 C   0  0  0  0  0  0
   -5.4099   31.0501    4.7363 C   0  0  0  0  0  0
   -3.9699   30.5046    4.7097 C   0  0  0  0  0  0
   -3.3486   30.2902    6.1067 C   0  0  0  0  0  0
   -2.0414   29.5066    6.1235 C   0  0  0  0  0  0
   -3.1233   31.4184    3.9420 N   0  0  0  0  0  0
   -2.3813   30.9575    2.8714 C   0  0  0  0  0  0
   -2.7060   29.7956    2.2342 N   0  0  0  0  0  0
   -1.9887   29.3978    1.1663 C   0  0  0  0  0  0
   -0.9442   30.0435    0.6498 N   0  3  0  0  0  0
   -0.5993   31.1911    1.2774 C   0  0  0  0  0  0
   -1.2741   31.6865    2.3790 C   0  0  0  0  0  0
   -0.6892   32.8600    2.7952 N   0  0  0  0  0  0
    0.3088   33.0751    1.9641 C   0  0  0  0  0  0
    0.4027   32.0854    1.0218 N   0  0  0  0  0  0
    1.3856   32.0274   -0.0303 C   0  0  0  0  0  0
   -2.6692   32.1737    4.4534 H   0  0  0  0  0  0
   -0.4517   29.6832   -0.1613 H   0  0  0  0  0  0
  1  2  1  0  0  0
  2  3  1  0  0  0
  3  4  1  0  0  0
  4  5  1  0  0  0
  3  6  1  0  0  0
  6  7  1  0  0  0
  7  8  2  0  0  0
  8  9  1  0  0  0
  9 10  2  0  0  0
 10 11  1  0  0  0
 11 12  2  0  0  0
 12 13  1  0  0  0
 13 14  2  0  0  0
 14 15  1  0  0  0
 15 16  1  0  0  0
 12  7  1  0  0  0
 15 11  1  0  0  0
  6 17  1  0  0  0
 10 18  1  0  0  0
M  END
>  <CHROM.0>
-59.88758699,69.16164617

>  <CHROM.1>
-73.01945972,168.69484178,-124.99636580,20.81770513,-2.07094355,30.97923250
2.97486299,2.63156831,0.58913664,1.12123045

>  <Name>
325805a0-f722-4d59-8995-38210e88ad91

>  <RI>
1.43086e+07

>  <Rbt.Current_Directory>
/data/work/jku/5V6S/work/40/8dba899c20c42488f2b1a17844994e

>  <Rbt.Executable>
rbdock ($Id: //depot/dev/client3/rdock/2013.1/src/exe/rbdock.cxx#4 $)

>  <Rbt.Library>
libRbt.so (2013.1, Build901 2013/11/27)

>  <Rbt.Parameter_File>
/rDock_2013.1_src/data/scripts/dock.prm

>  <Rbt.Receptor>
docking.prm

>  <SCORE>
-12.4999

>  <SCORE.INTER>
-9.52447

>  <SCORE.INTER.CONST>
1

>  <SCORE.INTER.POLAR>
-1.40312

>  <SCORE.INTER.REPUL>
0.0940368

>  <SCORE.INTER.ROT>
4

>  <SCORE.INTER.VDW>
-14.624

>  <SCORE.INTER.norm>
-0.59528

>  <SCORE.INTRA>
-1.46207

>  <SCORE.INTRA.DIHEDRAL>
1.00798

>  <SCORE.INTRA.DIHEDRAL.0>
2.41933

>  <SCORE.INTRA.POLAR>
0

>  <SCORE.INTRA.POLAR.0>
0

>  <SCORE.INTRA.REPUL>
0

>  <SCORE.INTRA.REPUL.0>
0

>  <SCORE.INTRA.VDW>
-1.96606

>  <SCORE.INTRA.VDW.0>
1.09835

>  <SCORE.INTRA.norm>
-0.0913796

>  <SCORE.RESTR>
0

>  <SCORE.RESTR.CAVITY>
0

>  <SCORE.RESTR.norm>
0

>  <SCORE.SYSTEM>
-1.51337

>  <SCORE.SYSTEM.CONST>
0

>  <SCORE.SYSTEM.DIHEDRAL>
0.413955

>  <SCORE.SYSTEM.POLAR>
-0.503074

>  <SCORE.SYSTEM.VDW>
-0.00989503

>  <SCORE.SYSTEM.norm>
-0.0945856

>  <SCORE.heavy>
16

>  <SCORE.norm>
-0.781245

>  <enum_code>
M

>  <enum_smi>
CCC(CC)Nc1nc[nH+]c2c1ncn2C

>  <sha256>
1c5e02397d5873f6efa1b3fea650d685ce255b2bb069a261985e6139479ba70b

>  <std_smi>
CCC(CC)Nc1ncnc2c1ncn2C

>  <uuid>
325805a0-f722-4d59-8995-38210e88ad91

$$$$
9bd8f38d-9f6c-49da-91a8-00260515f5ab
  rDOCK(R)          3D
libRbt.so/2013.1/901 2013/11/27
 18 19  0  0  0  0  0  0  0  0999 V2000
   -2.2427   29.6553    4.2491 C   0  0  0  0  0  0
   -2.1614   28.4569    5.1808 C   0  0  0  0  0  0
   -3.2325   27.3627    5.0065 C   0  0  0  0  0  0
   -4.6627   27.8090    5.3730 C   0  0  0  0  0  0
   -5.7982   26.8418    5.0574 C   0  0  0  0  0  0
   -2.8913   26.1162    5.7494 N   0  3  0  0  0  0
   -1.7768   25.3955    5.1809 C   0  0  0  0  0  0
   -0.5575   25.9419    5.1960 N   0  0  0  0  0  0
    0.4308   25.2250    4.6102 C   0  0  0  0  0  0
    0.3328   24.0287    3.9953 N   0  0  0  0  0  0
   -0.9248   23.5627    3.9972 C   0  0  0  0  0  0
   -2.0252   24.1792    4.5570 C   0  0  0  0  0  0
   -3.1712   23.4478    4.3700 N   0  0  0  0  0  0
   -2.7672   22.3792    3.7059 C   0  0  0  0  0  0
   -1.4172   22.4062    3.4604 N   0  0  0  0  0  0
   -0.6512   21.4071    2.7598 C   0  0  0  0  0  0
   -2.6600   26.2953    6.7371 H   0  0  0  0  0  0
   -3.6684   25.4484    5.7215 H   0  0  0  0  0  0
  1  2  1  0  0  0
  2  3  1  0  0  0
  3  4  1  0  0  0
  4  5  1  0  0  0
  3  6  1  0  0  0
  6  7  1  0  0  0
  7  8  2  0  0  0
  8  9  1  0  0  0
  9 10  2  0  0  0
 10 11  1  0  0  0
 11 12  2  0  0  0
 12 13  1  0  0  0
 13 14  2  0  0  0
 14 15  1  0  0  0
 15 16  1  0  0  0
 12  7  1  0  0  0
 15 11  1  0  0  0
  6 17  1  0  0  0
  6 18  1  0  0  0
M  END
>  <CHROM.0>
-59.88758699,68.66984301

>  <CHROM.1>
-66.88913111,172.34404011,-70.17633792,65.95000684,-2.13334234,25.30713671
4.53650383,-1.98754581,-0.09010037,-2.91727894

>  <Name>
9bd8f38d-9f6c-49da-91a8-00260515f5ab

>  <RI>
2.04158e+07

>  <Rbt.Current_Directory>
/data/work/jku/5V6S/work/40/8dba899c20c42488f2b1a17844994e

>  <Rbt.Executable>
rbdock ($Id: //depot/dev/client3/rdock/2013.1/src/exe/rbdock.cxx#4 $)

>  <Rbt.Library>
libRbt.so (2013.1, Build901 2013/11/27)

>  <Rbt.Parameter_File>
/rDock_2013.1_src/data/scripts/dock.prm

>  <Rbt.Receptor>
docking.prm

>  <SCORE>
-10.7831

>  <SCORE.INTER>
-7.8356

>  <SCORE.INTER.CONST>
1

>  <SCORE.INTER.POLAR>
0

>  <SCORE.INTER.REPUL>
0

>  <SCORE.INTER.ROT>
4

>  <SCORE.INTER.VDW>
-17.2356

>  <SCORE.INTER.norm>
-0.489725

>  <SCORE.INTRA>
-1.43413

>  <SCORE.INTRA.DIHEDRAL>
-1.86346

>  <SCORE.INTRA.DIHEDRAL.0>
3.50306

>  <SCORE.INTRA.POLAR>
-0.051177

>  <SCORE.INTRA.POLAR.0>
-0.0278997

>  <SCORE.INTRA.REPUL>
0

>  <SCORE.INTRA.REPUL.0>
0

>  <SCORE.INTRA.VDW>
-0.328404

>  <SCORE.INTRA.VDW.0>
0.0356359

>  <SCORE.INTRA.norm>
-0.0896333

>  <SCORE.RESTR>
0

>  <SCORE.RESTR.CAVITY>
0

>  <SCORE.RESTR.norm>
0

>  <SCORE.SYSTEM>
-1.5134

>  <SCORE.SYSTEM.CONST>
0

>  <SCORE.SYSTEM.DIHEDRAL>
0.372235

>  <SCORE.SYSTEM.POLAR>
-0.50274

>  <SCORE.SYSTEM.VDW>
0.00980208

>  <SCORE.SYSTEM.norm>
-0.0945872

>  <SCORE.heavy>
16

>  <SCORE.norm>
-0.673946

>  <enum_code>
M

>  <enum_smi>
CCC(CC)[NH2+]c1ncnc2c1ncn2C

>  <sha256>
1c5e02397d5873f6efa1b3fea650d685ce255b2bb069a261985e6139479ba70b

>  <std_smi>
CCC(CC)Nc1ncnc2c1ncn2C

>  <uuid>
9bd8f38d-9f6c-49da-91a8-00260515f5ab

$$$$
9bd8f38d-9f6c-49da-91a8-00260515f5ab
  rDOCK(R)          3D
libRbt.so/2013.1/901 2013/11/27
 18 19  0  0  0  0  0  0  0  0999 V2000
   -5.2603   26.1871    3.8090 C   0  0  0  0  0  0
   -4.1549   27.0451    4.4031 C   0  0  0  0  0  0
   -2.7838   26.3728    4.6101 C   0  0  0  0  0  0
   -2.7811   25.2452    5.6626 C   0  0  0  0  0  0
   -1.5026   24.4271    5.8058 C   0  0  0  0  0  0
   -1.7144   27.3602    4.9319 N   0  3  0  0  0  0
   -1.5517   28.3800    3.9227 C   0  0  0  0  0  0
   -1.2226   28.0312    2.6755 N   0  0  0  0  0  0
   -1.0490   29.0437    1.7931 C   0  0  0  0  0  0
   -1.1514   30.3686    2.0230 N   0  0  0  0  0  0
   -1.4549   30.6364    3.3016 C   0  0  0  0  0  0
   -1.6638   29.7113    4.3041 C   0  0  0  0  0  0
   -1.9390   30.3134    5.5061 N   0  0  0  0  0  0
   -1.9092   31.6062    5.2337 C   0  0  0  0  0  0
   -1.6218   31.8470    3.9135 N   0  0  0  0  0  0
   -1.5076   33.1362    3.2804 C   0  0  0  0  0  0
   -1.8805   27.8462    5.8249 H   0  0  0  0  0  0
   -0.7980   26.9043    4.9844 H   0  0  0  0  0  0
  1  2  1  0  0  0
  2  3  1  0  0  0
  3  4  1  0  0  0
  4  5  1  0  0  0
  3  6  1  0  0  0
  6  7  1  0  0  0
  7  8  2  0  0  0
  8  9  1  0  0  0
  9 10  2  0  0  0
 10 11  1  0  0  0
 11 12  2  0  0  0
 12 13  1  0  0  0
 13 14  2  0  0  0
 14 15  1  0  0  0
 15 16  1  0  0  0
 12  7  1  0  0  0
 15 11  1  0  0  0
  6 17  1  0  0  0
  6 18  1  0  0  0
M  END
>  <CHROM.0>
-59.88758699,68.15405335

>  <CHROM.1>
-65.91275798,173.09781548,-57.82953938,-60.27976917,-2.09865064,28.68103571
4.09789553,-2.32460546,1.22030408,0.48546674

>  <Name>
9bd8f38d-9f6c-49da-91a8-00260515f5ab

>  <RI>
2.04158e+07

>  <Rbt.Current_Directory>
/data/work/jku/5V6S/work/40/8dba899c20c42488f2b1a17844994e

>  <Rbt.Executable>
rbdock ($Id: //depot/dev/client3/rdock/2013.1/src/exe/rbdock.cxx#4 $)

>  <Rbt.Library>
libRbt.so (2013.1, Build901 2013/11/27)

>  <Rbt.Parameter_File>
/rDock_2013.1_src/data/scripts/dock.prm

>  <Rbt.Receptor>
docking.prm

>  <SCORE>
-11.794

>  <SCORE.INTER>
-8.63425

>  <SCORE.INTER.CONST>
1

>  <SCORE.INTER.POLAR>
0

>  <SCORE.INTER.REPUL>
0.000956979

>  <SCORE.INTER.ROT>
4

>  <SCORE.INTER.VDW>
-18.039

>  <SCORE.INTER.norm>
-0.53964

>  <SCORE.INTRA>
-1.64877

>  <SCORE.INTRA.DIHEDRAL>
-2.11825

>  <SCORE.INTRA.DIHEDRAL.0>
3.50306

>  <SCORE.INTRA.POLAR>
-0.0210047

>  <SCORE.INTRA.POLAR.0>
-0.0278997

>  <SCORE.INTRA.REPUL>
0

>  <SCORE.INTRA.REPUL.0>
0

>  <SCORE.INTRA.VDW>
-0.518224

>  <SCORE.INTRA.VDW.0>
0.0356359

>  <SCORE.INTRA.norm>
-0.103048

>  <SCORE.RESTR>
0

>  <SCORE.RESTR.CAVITY>
0

>  <SCORE.RESTR.norm>
0

>  <SCORE.SYSTEM>
-1.51095

>  <SCORE.SYSTEM.CONST>
0

>  <SCORE.SYSTEM.DIHEDRAL>
0.330785

>  <SCORE.SYSTEM.POLAR>
-0.502177

>  <SCORE.SYSTEM.VDW>
0.0310609

>  <SCORE.SYSTEM.norm>
-0.0944344

>  <SCORE.heavy>
16

>  <SCORE.norm>
-0.737123

>  <enum_code>
M

>  <enum_smi>
CCC(CC)[NH2+]c1ncnc2c1ncn2C

>  <sha256>
1c5e02397d5873f6efa1b3fea650d685ce255b2bb069a261985e6139479ba70b

>  <std_smi>
CCC(CC)Nc1ncnc2c1ncn2C

>  <uuid>
9bd8f38d-9f6c-49da-91a8-00260515f5ab

$$$$
9bd8f38d-9f6c-49da-91a8-00260515f5ab
  rDOCK(R)          3D
libRbt.so/2013.1/901 2013/11/27
 18 19  0  0  0  0  0  0  0  0999 V2000
   -4.1509   24.1883    4.3824 C   0  0  0  0  0  0
   -3.0541   24.5760    5.3610 C   0  0  0  0  0  0
   -2.3350   25.9155    5.1092 C   0  0  0  0  0  0
   -1.1576   26.1946    6.0657 C   0  0  0  0  0  0
    0.0583   25.2809    5.9612 C   0  0  0  0  0  0
   -3.2757   27.0718    5.1229 N   0  3  0  0  0  0
   -2.6456   28.3290    4.7951 C   0  0  0  0  0  0
   -2.5553   29.2864    5.7228 N   0  0  0  0  0  0
   -1.9871   30.4519    5.3318 C   0  0  0  0  0  0
   -1.5138   30.7732    4.1105 N   0  0  0  0  0  0
   -1.6674   29.7723    3.2311 C   0  0  0  0  0  0
   -2.2217   28.5349    3.4881 C   0  0  0  0  0  0
   -2.2483   27.7438    2.3671 N   0  0  0  0  0  0
   -1.6993   28.4952    1.4289 C   0  0  0  0  0  0
   -1.3321   29.7282    1.9069 N   0  0  0  0  0  0
   -0.7127   30.7908    1.1566 C   0  0  0  0  0  0
   -4.0611   26.9504    4.4676 H   0  0  0  0  0  0
   -3.6641   27.2175    6.0602 H   0  0  0  0  0  0
  1  2  1  0  0  0
  2  3  1  0  0  0
  3  4  1  0  0  0
  4  5  1  0  0  0
  3  6  1  0  0  0
  6  7  1  0  0  0
  7  8  2  0  0  0
  8  9  1  0  0  0
  9 10  2  0  0  0
 10 11  1  0  0  0
 11 12  2  0  0  0
 12 13  1  0  0  0
 13 14  2  0  0  0
 14 15  1  0  0  0
 15 16  1  0  0  0
 12  7  1  0  0  0
 15 11  1  0  0  0
  6 17  1  0  0  0
  6 18  1  0  0  0
M  END
>  <CHROM.0>
-59.88758699,68.32481081

>  <CHROM.1>
-175.18632758,66.24432783,-175.82019806,-113.85700278,-2.03823671,27.89080175
4.11253248,2.44526564,1.32771254,1.76791099

>  <Name>
9bd8f38d-9f6c-49da-91a8-00260515f5ab

>  <RI>
2.04158e+07

>  <Rbt.Current_Directory>
/data/work/jku/5V6S/work/40/8dba899c20c42488f2b1a17844994e

>  <Rbt.Executable>
rbdock ($Id: //depot/dev/client3/rdock/2013.1/src/exe/rbdock.cxx#4 $)

>  <Rbt.Library>
libRbt.so (2013.1, Build901 2013/11/27)

>  <Rbt.Parameter_File>
/rDock_2013.1_src/data/scripts/dock.prm

>  <Rbt.Receptor>
docking.prm

>  <SCORE>
-9.63163

>  <SCORE.INTER>
-6.3596

>  <SCORE.INTER.CONST>
1

>  <SCORE.INTER.POLAR>
0

>  <SCORE.INTER.REPUL>
0.0160958

>  <SCORE.INTER.ROT>
4

>  <SCORE.INTER.VDW>
-15.8401

>  <SCORE.INTER.norm>
-0.397475

>  <SCORE.INTRA>
-1.75999

>  <SCORE.INTRA.DIHEDRAL>
-2.19075

>  <SCORE.INTRA.DIHEDRAL.0>
3.50306

>  <SCORE.INTRA.POLAR>
0.0278997

>  <SCORE.INTRA.POLAR.0>
-0.0278997

>  <SCORE.INTRA.REPUL>
0

>  <SCORE.INTRA.REPUL.0>
0

>  <SCORE.INTRA.VDW>
-0.759476

>  <SCORE.INTRA.VDW.0>
0.0356359

>  <SCORE.INTRA.norm>
-0.109999

>  <SCORE.RESTR>
0

>  <SCORE.RESTR.CAVITY>
0

>  <SCORE.RESTR.norm>
0

>  <SCORE.SYSTEM>
-1.51204

>  <SCORE.SYSTEM.CONST>
0

>  <SCORE.SYSTEM.DIHEDRAL>
0.344245

>  <SCORE.SYSTEM.POLAR>
-0.502388

>  <SCORE.SYSTEM.VDW>
0.0239541

>  <SCORE.SYSTEM.norm>
-0.0945026

>  <SCORE.heavy>
16

>  <SCORE.norm>
-0.601977

>  <enum_code>
M

>  <enum_smi>
CCC(CC)[NH2+]c1ncnc2c1ncn2C

>  <sha256>
1c5e02397d5873f6efa1b3fea650d685ce255b2bb069a261985e6139479ba70b

>  <std_smi>
CCC(CC)Nc1ncnc2c1ncn2C

>  <uuid>
9bd8f38d-9f6c-49da-91a8-00260515f5ab

$$$$
9bd8f38d-9f6c-49da-91a8-00260515f5ab
  rDOCK(R)          3D
libRbt.so/2013.1/901 2013/11/27
 18 19  0  0  0  0  0  0  0  0999 V2000
   -2.1224   28.1635    5.5495 C   0  0  0  0  0  0
   -2.2930   26.7110    5.9640 C   0  0  0  0  0  0
   -3.3606   25.8912    5.2133 C   0  0  0  0  0  0
   -4.8095   26.3614    5.4552 C   0  0  0  0  0  0
   -5.8928   25.7752    4.5569 C   0  0  0  0  0  0
   -3.2539   24.4318    5.4978 N   0  3  0  0  0  0
   -2.1231   23.8028    4.8570 C   0  0  0  0  0  0
   -0.8875   24.2413    5.1145 N   0  0  0  0  0  0
    0.1197   23.6292    4.4476 C   0  0  0  0  0  0
    0.0278   22.6375    3.5382 N   0  0  0  0  0  0
   -1.2439   22.2750    3.3147 C   0  0  0  0  0  0
   -2.3646   22.8046    3.9213 C   0  0  0  0  0  0
   -3.5190   22.2262    3.4567 N   0  0  0  0  0  0
   -3.1011   21.3352    2.5748 C   0  0  0  0  0  0
   -1.7337   21.3294    2.4579 N   0  0  0  0  0  0
   -0.9493   20.4895    1.5890 C   0  0  0  0  0  0
   -3.1783   24.2297    6.5050 H   0  0  0  0  0  0
   -4.0678   23.9267    5.1329 H   0  0  0  0  0  0
  1  2  1  0  0  0
  2  3  1  0  0  0
  3  4  1  0  0  0
  4  5  1  0  0  0
  3  6  1  0  0  0
  6  7  1  0  0  0
  7  8  2  0  0  0
  8  9  1  0  0  0
  9 10  2  0  0  0
 10 11  1  0  0  0
 11 12  2  0  0  0
 12 13  1  0  0  0
 13 14  2  0  0  0
 14 15  1  0  0  0
 15 16  1  0  0  0
 12  7  1  0  0  0
 15 11  1  0  0  0
  6 17  1  0  0  0
  6 18  1  0  0  0
M  END
>  <CHROM.0>
-59.88758699,69.19339328

>  <CHROM.1>
-66.03303095,168.97183395,-73.22664820,58.56054636,-2.37999940,23.92538652
4.23669219,-1.92744026,0.07070620,-2.61540606

>  <Name>
9bd8f38d-9f6c-49da-91a8-00260515f5ab

>  <RI>
2.04158e+07

>  <Rbt.Current_Directory>
/data/work/jku/5V6S/work/40/8dba899c20c42488f2b1a17844994e

>  <Rbt.Executable>
rbdock ($Id: //depot/dev/client3/rdock/2013.1/src/exe/rbdock.cxx#4 $)

>  <Rbt.Library>
libRbt.so (2013.1, Build901 2013/11/27)

>  <Rbt.Parameter_File>
/rDock_2013.1_src/data/scripts/dock.prm

>  <Rbt.Receptor>
docking.prm

>  <SCORE>
-10.6127

>  <SCORE.INTER>
-7.81253

>  <SCORE.INTER.CONST>
1

>  <SCORE.INTER.POLAR>
0

>  <SCORE.INTER.REPUL>
0

>  <SCORE.INTER.ROT>
4

>  <SCORE.INTER.VDW>
-17.2125

>  <SCORE.INTER.norm>
-0.488283

>  <SCORE.INTRA>
-1.28691

>  <SCORE.INTRA.DIHEDRAL>
-1.55424

>  <SCORE.INTRA.DIHEDRAL.0>
3.50306

>  <SCORE.INTRA.POLAR>
-0.0724558

>  <SCORE.INTRA.POLAR.0>
-0.0278997

>  <SCORE.INTRA.REPUL>
0

>  <SCORE.INTRA.REPUL.0>
0

>  <SCORE.INTRA.VDW>
-0.263447

>  <SCORE.INTRA.VDW.0>
0.0356359

>  <SCORE.INTRA.norm>
-0.0804322

>  <SCORE.RESTR>
0

>  <SCORE.RESTR.CAVITY>
0

>  <SCORE.RESTR.norm>
0

>  <SCORE.SYSTEM>
-1.51329

>  <SCORE.SYSTEM.CONST>
0

>  <SCORE.SYSTEM.DIHEDRAL>
0.416722

>  <SCORE.SYSTEM.POLAR>
-0.503089

>  <SCORE.SYSTEM.VDW>
-0.0111476

>  <SCORE.SYSTEM.norm>
-0.0945806

>  <SCORE.heavy>
16

>  <SCORE.norm>
-0.663296

>  <enum_code>
M

>  <enum_smi>
CCC(CC)[NH2+]c1ncnc2c1ncn2C

>  <sha256>
1c5e02397d5873f6efa1b3fea650d685ce255b2bb069a261985e6139479ba70b

>  <std_smi>
CCC(CC)Nc1ncnc2c1ncn2C

>  <uuid>
9bd8f38d-9f6c-49da-91a8-00260515f5ab

$$$$
9bd8f38d-9f6c-49da-91a8-00260515f5ab
  rDOCK(R)          3D
libRbt.so/2013.1/901 2013/11/27
 18 19  0  0  0  0  0  0  0  0999 V2000
   -1.6014   32.5947    3.4364 C   0  0  0  0  0  0
   -1.0597   32.9803    2.0694 C   0  0  0  0  0  0
   -0.2280   31.9191    1.3229 C   0  0  0  0  0  0
    0.7017   32.4910    0.2332 C   0  0  0  0  0  0
    1.9264   31.6649   -0.1435 C   0  0  0  0  0  0
   -1.0792   30.8430    0.7402 N   0  3  0  0  0  0
   -1.4171   29.8035    1.6838 C   0  0  0  0  0  0
   -0.5686   28.7913    1.8863 N   0  0  0  0  0  0
   -0.9700   27.8340    2.7559 C   0  0  0  0  0  0
   -2.1339   27.7672    3.4340 N   0  0  0  0  0  0
   -2.9402   28.8019    3.1546 C   0  0  0  0  0  0
   -2.6629   29.8471    2.2972 C   0  0  0  0  0  0
   -3.7068   30.7344    2.2186 N   0  0  0  0  0  0
   -4.6163   30.2359    3.0374 C   0  0  0  0  0  0
   -4.1949   29.0697    3.6255 N   0  0  0  0  0  0
   -4.9349   28.2642    4.5632 C   0  0  0  0  0  0
   -1.9665   31.2027    0.3603 H   0  0  0  0  0  0
   -0.5865   30.3534   -0.0135 H   0  0  0  0  0  0
  1  2  1  0  0  0
  2  3  1  0  0  0
  3  4  1  0  0  0
  4  5  1  0  0  0
  3  6  1  0  0  0
  6  7  1  0  0  0
  7  8  2  0  0  0
  8  9  1  0  0  0
  9 10  2  0  0  0
 10 11  1  0  0  0
 11 12  2  0  0  0
 12 13  1  0  0  0
 13 14  2  0  0  0
 14 15  1  0  0  0
 15 16  1  0  0  0
 12  7  1  0  0  0
 15 11  1  0  0  0
  6 17  1  0  0  0
  6 18  1  0  0  0
M  END
>  <CHROM.0>
-59.88758699,68.55180317

>  <CHROM.1>
-158.84327420,155.59199692,-83.40307286,-84.80104245,-1.81829311,30.26503318
2.25086395,0.62566792,0.50789848,-0.14323268

>  <Name>
9bd8f38d-9f6c-49da-91a8-00260515f5ab

>  <RI>
2.04158e+07

>  <Rbt.Current_Directory>
/data/work/jku/5V6S/work/40/8dba899c20c42488f2b1a17844994e

>  <Rbt.Executable>
rbdock ($Id: //depot/dev/client3/rdock/2013.1/src/exe/rbdock.cxx#4 $)

>  <Rbt.Library>
libRbt.so (2013.1, Build901 2013/11/27)

>  <Rbt.Parameter_File>
/rDock_2013.1_src/data/scripts/dock.prm

>  <Rbt.Receptor>
docking.prm

>  <SCORE>
-12.8547

>  <SCORE.INTER>
-11.0524

>  <SCORE.INTER.CONST>
1

>  <SCORE.INTER.POLAR>
-1.16927

>  <SCORE.INTER.REPUL>
0

>  <SCORE.INTER.ROT>
4

>  <SCORE.INTER.VDW>
-16.4769

>  <SCORE.INTER.norm>
-0.690777

>  <SCORE.INTRA>
-0.289177

>  <SCORE.INTRA.DIHEDRAL>
2.11647

>  <SCORE.INTRA.DIHEDRAL.0>
3.50306

>  <SCORE.INTRA.POLAR>
0.0278997

>  <SCORE.INTRA.POLAR.0>
-0.0278997

>  <SCORE.INTRA.REPUL>
0

>  <SCORE.INTRA.REPUL.0>
0

>  <SCORE.INTRA.VDW>
-1.44227

>  <SCORE.INTRA.VDW.0>
0.0356359

>  <SCORE.INTRA.norm>
-0.0180736

>  <SCORE.RESTR>
0

>  <SCORE.RESTR.CAVITY>
0

>  <SCORE.RESTR.norm>
0

>  <SCORE.SYSTEM>
-1.51306

>  <SCORE.SYSTEM.CONST>
0

>  <SCORE.SYSTEM.DIHEDRAL>
0.36254

>  <SCORE.SYSTEM.POLAR>
-0.50263

>  <SCORE.SYSTEM.VDW>
0.0146125

>  <SCORE.SYSTEM.norm>
-0.0945663

>  <SCORE.heavy>
16

>  <SCORE.norm>
-0.803417

>  <enum_code>
M

>  <enum_smi>
CCC(CC)[NH2+]c1ncnc2c1ncn2C

>  <sha256>
1c5e02397d5873f6efa1b3fea650d685ce255b2bb069a261985e6139479ba70b

>  <std_smi>
CCC(CC)Nc1ncnc2c1ncn2C

>  <uuid>
9bd8f38d-9f6c-49da-91a8-00260515f5ab

$$$$
e1da5efe-8ef9-4fc9-97c5-8bb654210c5a
  rDOCK(R)          3D
libRbt.so/2013.1/901 2013/11/27
 19 20  0  0  0  0  0  0  0  0999 V2000
   -1.7274   29.2215    3.8382 C   0  0  0  0  0  0
   -3.2499   29.2041    3.8866 C   0  0  0  0  0  0
   -3.9244   30.5242    4.3066 C   0  0  0  0  0  0
   -5.4213   30.3452    4.6116 C   0  0  0  0  0  0
   -5.6914   29.5147    5.8608 C   0  0  0  0  0  0
   -3.7660   31.5815    3.2497 N   0  3  0  0  0  0
   -2.4289   32.1592    3.1256 C   0  0  0  0  0  0
   -1.8020   33.0048    3.9518 N   0  3  0  0  0  0
   -0.5686   33.4766    3.7063 C   0  0  0  0  0  0
    0.1814   33.1872    2.6311 N   0  0  0  0  0  0
   -0.4509   32.3577    1.7919 C   0  0  0  0  0  0
   -1.7136   31.8303    1.9728 C   0  0  0  0  0  0
   -2.0752   31.0261    0.9267 N   0  0  0  0  0  0
   -1.0363   31.0535    0.1095 C   0  0  0  0  0  0
   -0.0271   31.8476    0.5939 N   0  0  0  0  0  0
    1.2429   32.1014   -0.0431 C   0  0  0  0  0  0
   -3.9723   31.1538    2.3208 H   0  0  0  0  0  0
   -4.4649   32.3341    3.3196 H   0  0  0  0  0  0
   -2.2500   33.3248    4.8079 H   0  0  0  0  0  0
  1  2  1  0  0  0
  2  3  1  0  0  0
  3  4  1  0  0  0
  4  5  1  0  0  0
  3  6  1  0  0  0
  6  7  1  0  0  0
  7  8  2  0  0  0
  8  9  1  0  0  0
  9 10  2  0  0  0
 10 11  1  0  0  0
 11 12  2  0  0  0
 12 13  1  0  0  0
 13 14  2  0  0  0
 14 15  1  0  0  0
 15 16  1  0  0  0
 12  7  1  0  0  0
 15 11  1  0  0  0
  6 17  1  0  0  0
  6 18  1  0  0  0
  8 19  1  0  0  0
M  END
>  <CHROM.0>
-59.88758699,68.46994123

>  <CHROM.1>
-168.11817086,68.03189641,-73.14526942,-72.45348830,-2.06640481,31.37505893
2.81255495,2.99526285,0.73295288,0.75177712

>  <Name>
e1da5efe-8ef9-4fc9-97c5-8bb654210c5a

>  <RI>
2.33936e+07

>  <Rbt.Current_Directory>
/data/work/jku/5V6S/work/40/8dba899c20c42488f2b1a17844994e

>  <Rbt.Executable>
rbdock ($Id: //depot/dev/client3/rdock/2013.1/src/exe/rbdock.cxx#4 $)

>  <Rbt.Library>
libRbt.so (2013.1, Build901 2013/11/27)

>  <Rbt.Parameter_File>
/rDock_2013.1_src/data/scripts/dock.prm

>  <Rbt.Receptor>
docking.prm

>  <SCORE>
-11.8305

>  <SCORE.INTER>
-10.1755

>  <SCORE.INTER.CONST>
1

>  <SCORE.INTER.POLAR>
-1.33415

>  <SCORE.INTER.REPUL>
0

>  <SCORE.INTER.ROT>
4

>  <SCORE.INTER.VDW>
-15.0394

>  <SCORE.INTER.norm>
-0.635969

>  <SCORE.INTRA>
-0.142235

>  <SCORE.INTRA.DIHEDRAL>
0.540431

>  <SCORE.INTRA.DIHEDRAL.0>
1.67486

>  <SCORE.INTRA.POLAR>
0.0332668

>  <SCORE.INTRA.POLAR.0>
-0.210791

>  <SCORE.INTRA.REPUL>
0

>  <SCORE.INTRA.REPUL.0>
0

>  <SCORE.INTRA.VDW>
-0.525558

>  <SCORE.INTRA.VDW.0>
-0.112905

>  <SCORE.INTRA.norm>
-0.00888969

>  <SCORE.RESTR>
0

>  <SCORE.RESTR.CAVITY>
0

>  <SCORE.RESTR.norm>
0

>  <SCORE.SYSTEM>
-1.51275

>  <SCORE.SYSTEM.CONST>
0

>  <SCORE.SYSTEM.DIHEDRAL>
0.355889

>  <SCORE.SYSTEM.POLAR>
-0.502548

>  <SCORE.SYSTEM.VDW>
0.0179676

>  <SCORE.SYSTEM.norm>
-0.0945469

>  <SCORE.heavy>
16

>  <SCORE.norm>
-0.739406

>  <enum_code>
M

>  <enum_smi>
CCC(CC)[NH2+]c1[nH+]cnc2c1ncn2C

>  <sha256>
1c5e02397d5873f6efa1b3fea650d685ce255b2bb069a261985e6139479ba70b

>  <std_smi>
CCC(CC)Nc1ncnc2c1ncn2C

>  <uuid>
e1da5efe-8ef9-4fc9-97c5-8bb654210c5a

$$$$
e1da5efe-8ef9-4fc9-97c5-8bb654210c5a
  rDOCK(R)          3D
libRbt.so/2013.1/901 2013/11/27
 19 20  0  0  0  0  0  0  0  0999 V2000
   -3.7261   28.3608    3.1524 C   0  0  0  0  0  0
   -3.9150   27.2866    4.2159 C   0  0  0  0  0  0
   -5.3539   27.0994    4.7345 C   0  0  0  0  0  0
   -5.7496   28.1729    5.7625 C   0  0  0  0  0  0
   -6.0582   29.5282    5.1370 C   0  0  0  0  0  0
   -5.5420   25.7416    5.3517 N   0  3  0  0  0  0
   -5.3368   24.6040    4.4567 C   0  0  0  0  0  0
   -6.2061   24.0337    3.6144 N   0  3  0  0  0  0
   -5.8891   22.9718    2.8554 C   0  0  0  0  0  0
   -4.7016   22.3455    2.8410 N   0  0  0  0  0  0
   -3.8358   22.9005    3.6980 C   0  0  0  0  0  0
   -4.0843   23.9896    4.5087 C   0  0  0  0  0  0
   -2.9954   24.3019    5.2759 N   0  0  0  0  0  0
   -2.0790   23.4128    4.9330 C   0  0  0  0  0  0
   -2.5439   22.5434    3.9782 N   0  0  0  0  0  0
   -1.8093   21.4526    3.3835 C   0  0  0  0  0  0
   -4.8410   25.6256    6.1154 H   0  0  0  0  0  0
   -6.4407   25.6395    5.8434 H   0  0  0  0  0  0
   -7.1541   24.3927    3.5221 H   0  0  0  0  0  0
  1  2  1  0  0  0
  2  3  1  0  0  0
  3  4  1  0  0  0
  4  5  1  0  0  0
  3  6  1  0  0  0
  6  7  1  0  0  0
  7  8  2  0  0  0
  8  9  1  0  0  0
  9 10  2  0  0  0
 10 11  1  0  0  0
 11 12  2  0  0  0
 12 13  1  0  0  0
 13 14  2  0  0  0
 14 15  1  0  0  0
 15 16  1  0  0  0
 12  7  1  0  0  0
 15 11  1  0  0  0
  6 17  1  0  0  0
  6 18  1  0  0  0
  8 19  1  0  0  0
M  END
>  <CHROM.0>
-59.88758699,68.85696236

>  <CHROM.1>
-78.94171720,75.76779225,-61.45691694,-84.79359720,-4.37907888,24.98263005
4.25296401,-1.91618785,0.13626706,-2.89981895

>  <Name>
e1da5efe-8ef9-4fc9-97c5-8bb654210c5a

>  <RI>
2.33936e+07

>  <Rbt.Current_Directory>
/data/work/jku/5V6S/work/40/8dba899c20c42488f2b1a17844994e

>  <Rbt.Executable>
rbdock ($Id: //depot/dev/client3/rdock/2013.1/src/exe/rbdock.cxx#4 $)

>  <Rbt.Library>
libRbt.so (2013.1, Build901 2013/11/27)

>  <Rbt.Parameter_File>
/rDock_2013.1_src/data/scripts/dock.prm

>  <Rbt.Receptor>
docking.prm

>  <SCORE>
-8.90959

>  <SCORE.INTER>
-8.47427

>  <SCORE.INTER.CONST>
1

>  <SCORE.INTER.POLAR>
-0.544106

>  <SCORE.INTER.REPUL>
0

>  <SCORE.INTER.ROT>
4

>  <SCORE.INTER.VDW>
-16.0243

>  <SCORE.INTER.norm>
-0.529642

>  <SCORE.INTRA>
1.07834

>  <SCORE.INTRA.DIHEDRAL>
1.39906

>  <SCORE.INTRA.DIHEDRAL.0>
1.67486

>  <SCORE.INTRA.POLAR>
0.131684

>  <SCORE.INTRA.POLAR.0>
-0.210791

>  <SCORE.INTRA.REPUL>
0

>  <SCORE.INTRA.REPUL.0>
0

>  <SCORE.INTRA.VDW>
-0.0689168

>  <SCORE.INTRA.VDW.0>
-0.112905

>  <SCORE.INTRA.norm>
0.0673963

>  <SCORE.RESTR>
0

>  <SCORE.RESTR.CAVITY>
0

>  <SCORE.RESTR.norm>
0

>  <SCORE.SYSTEM>
-1.51366

>  <SCORE.SYSTEM.CONST>
0

>  <SCORE.SYSTEM.DIHEDRAL>
0.387857

>  <SCORE.SYSTEM.POLAR>
-0.50289

>  <SCORE.SYSTEM.VDW>
0.00224245

>  <SCORE.SYSTEM.norm>
-0.0946035

>  <SCORE.heavy>
16

>  <SCORE.norm>
-0.556849

>  <enum_code>
M

>  <enum_smi>
CCC(CC)[NH2+]c1[nH+]cnc2c1ncn2C

>  <sha256>
1c5e02397d5873f6efa1b3fea650d685ce255b2bb069a261985e6139479ba70b

>  <std_smi>
CCC(CC)Nc1ncnc2c1ncn2C

>  <uuid>
e1da5efe-8ef9-4fc9-97c5-8bb654210c5a

$$$$
e1da5efe-8ef9-4fc9-97c5-8bb654210c5a
  rDOCK(R)          3D
libRbt.so/2013.1/901 2013/11/27
 19 20  0  0  0  0  0  0  0  0999 V2000
    0.8784   31.8583    0.5048 C   0  0  0  0  0  0
   -0.4764   32.5514    0.4349 C   0  0  0  0  0  0
   -1.5161   32.1022    1.4796 C   0  0  0  0  0  0
   -2.9138   32.6803    1.2000 C   0  0  0  0  0  0
   -4.0071   32.0749    2.0726 C   0  0  0  0  0  0
   -1.0984   32.4897    2.8708 N   0  3  0  0  0  0
   -1.5519   31.6016    3.9397 C   0  0  0  0  0  0
   -2.0185   31.9211    5.1525 N   0  3  0  0  0  0
   -2.3871   30.9958    6.0537 C   0  0  0  0  0  0
   -2.3323   29.6659    5.8786 N   0  0  0  0  0  0
   -1.8462   29.3422    4.6740 C   0  0  0  0  0  0
   -1.4480   30.2310    3.6958 C   0  0  0  0  0  0
   -0.9882   29.5795    2.5841 N   0  0  0  0  0  0
   -1.1097   28.2955    2.8750 C   0  0  0  0  0  0
   -1.6269   28.1041    4.1318 N   0  0  0  0  0  0
   -1.8870   26.8338    4.7657 C   0  0  0  0  0  0
   -0.0565   32.4752    2.9192 H   0  0  0  0  0  0
   -1.3287   33.4648    3.1076 H   0  0  0  0  0  0
   -2.1087   32.8945    5.4361 H   0  0  0  0  0  0
  1  2  1  0  0  0
  2  3  1  0  0  0
  3  4  1  0  0  0
  4  5  1  0  0  0
  3  6  1  0  0  0
  6  7  1  0  0  0
  7  8  2  0  0  0
  8  9  1  0  0  0
  9 10  2  0  0  0
 10 11  1  0  0  0
 11 12  2  0  0  0
 12 13  1  0  0  0
 13 14  2  0  0  0
 14 15  1  0  0  0
 15 16  1  0  0  0
 12  7  1  0  0  0
 15 11  1  0  0  0
  6 17  1  0  0  0
  6 18  1  0  0  0
  8 19  1  0  0  0
M  END
>  <CHROM.0>
-59.88758699,69.03654954

>  <CHROM.1>
-170.81766895,170.40980624,-149.64966939,-139.17891702,-1.63985479,30.68108967
3.24000809,-1.31890734,-1.00105966,2.57184538

>  <Name>
e1da5efe-8ef9-4fc9-97c5-8bb654210c5a

>  <RI>
2.33936e+07

>  <Rbt.Current_Directory>
/data/work/jku/5V6S/work/40/8dba899c20c42488f2b1a17844994e

>  <Rbt.Executable>
rbdock ($Id: //depot/dev/client3/rdock/2013.1/src/exe/rbdock.cxx#4 $)

>  <Rbt.Library>
libRbt.so (2013.1, Build901 2013/11/27)

>  <Rbt.Parameter_File>
/rDock_2013.1_src/data/scripts/dock.prm

>  <Rbt.Receptor>
docking.prm

>  <SCORE>
-15.0997

>  <SCORE.INTER>
-14.269

>  <SCORE.INTER.CONST>
1

>  <SCORE.INTER.POLAR>
-1.3415

>  <SCORE.INTER.REPUL>
0

>  <SCORE.INTER.ROT>
4

>  <SCORE.INTER.VDW>
-19.1079

>  <SCORE.INTER.norm>
-0.891815

>  <SCORE.INTRA>
0.682932

>  <SCORE.INTRA.DIHEDRAL>
1.37735

>  <SCORE.INTRA.DIHEDRAL.0>
1.67486

>  <SCORE.INTRA.POLAR>
0.210791

>  <SCORE.INTRA.POLAR.0>
-0.210791

>  <SCORE.INTRA.REPUL>
0

>  <SCORE.INTRA.REPUL.0>
0

>  <SCORE.INTRA.VDW>
-0.722433

>  <SCORE.INTRA.VDW.0>
-0.112905

>  <SCORE.INTRA.norm>
0.0426833

>  <SCORE.RESTR>
0

>  <SCORE.RESTR.CAVITY>
0

>  <SCORE.RESTR.norm>
0

>  <SCORE.SYSTEM>
-1.51359

>  <SCORE.SYSTEM.CONST>
0

>  <SCORE.SYSTEM.DIHEDRAL>
0.403141

>  <SCORE.SYSTEM.POLAR>
-0.503008

>  <SCORE.SYSTEM.VDW>
-0.00493727

>  <SCORE.SYSTEM.norm>
-0.0945995

>  <SCORE.heavy>
16

>  <SCORE.norm>
-0.943731

>  <enum_code>
M

>  <enum_smi>
CCC(CC)[NH2+]c1[nH+]cnc2c1ncn2C

>  <sha256>
1c5e02397d5873f6efa1b3fea650d685ce255b2bb069a261985e6139479ba70b

>  <std_smi>
CCC(CC)Nc1ncnc2c1ncn2C

>  <uuid>
e1da5efe-8ef9-4fc9-97c5-8bb654210c5a

$$$$
e1da5efe-8ef9-4fc9-97c5-8bb654210c5a
  rDOCK(R)          3D
libRbt.so/2013.1/901 2013/11/27
 19 20  0  0  0  0  0  0  0  0999 V2000
   -2.1622   29.5115    5.1915 C   0  0  0  0  0  0
   -2.9843   28.3412    5.7159 C   0  0  0  0  0  0
   -3.0923   27.1223    4.7794 C   0  0  0  0  0  0
   -4.0173   27.3868    3.5793 C   0  0  0  0  0  0
   -3.3555   28.1948    2.4691 C   0  0  0  0  0  0
   -3.5850   25.9074    5.5152 N   0  3  0  0  0  0
   -3.6187   24.6676    4.7415 C   0  0  0  0  0  0
   -4.6806   23.9576    4.3433 N   0  3  0  0  0  0
   -4.5681   22.8150    3.6461 C   0  0  0  0  0  0
   -3.4163   22.2358    3.2715 N   0  0  0  0  0  0
   -2.3510   22.9326    3.6863 C   0  0  0  0  0  0
   -2.3836   24.1115    4.4034 C   0  0  0  0  0  0
   -1.1227   24.5638    4.6813 N   0  0  0  0  0  0
   -0.3183   23.6703    4.1312 C   0  0  0  0  0  0
   -1.0193   22.6636    3.5158 N   0  0  0  0  0  0
   -0.4571   21.5298    2.8218 C   0  0  0  0  0  0
   -2.9402   25.7205    6.3137 H   0  0  0  0  0  0
   -4.4927   26.0531    5.9785 H   0  0  0  0  0  0
   -5.6255   24.2663    4.5623 H   0  0  0  0  0  0
  1  2  1  0  0  0
  2  3  1  0  0  0
  3  4  1  0  0  0
  4  5  1  0  0  0
  3  6  1  0  0  0
  6  7  1  0  0  0
  7  8  2  0  0  0
  8  9  1  0  0  0
  9 10  2  0  0  0
 10 11  1  0  0  0
 11 12  2  0  0  0
 12 13  1  0  0  0
 13 14  2  0  0  0
 14 15  1  0  0  0
 15 16  1  0  0  0
 12  7  1  0  0  0
 15 11  1  0  0  0
  6 17  1  0  0  0
  6 18  1  0  0  0
  8 19  1  0  0  0
M  END
>  <CHROM.0>
-59.88758699,70.29527227

>  <CHROM.1>
-73.08359482,79.22376538,-175.17396062,-112.74173342,-2.70682356,25.03622138
4.16295447,-1.77215645,0.00712859,-2.94959631

>  <Name>
e1da5efe-8ef9-4fc9-97c5-8bb654210c5a

>  <RI>
2.33936e+07

>  <Rbt.Current_Directory>
/data/work/jku/5V6S/work/40/8dba899c20c42488f2b1a17844994e

>  <Rbt.Executable>
rbdock ($Id: //depot/dev/client3/rdock/2013.1/src/exe/rbdock.cxx#4 $)

>  <Rbt.Library>
libRbt.so (2013.1, Build901 2013/11/27)

>  <Rbt.Parameter_File>
/rDock_2013.1_src/data/scripts/dock.prm

>  <Rbt.Receptor>
docking.prm

>  <SCORE>
-6.44256

>  <SCORE.INTER>
-6.1097

>  <SCORE.INTER.CONST>
1

>  <SCORE.INTER.POLAR>
0

>  <SCORE.INTER.REPUL>
0

>  <SCORE.INTER.ROT>
4

>  <SCORE.INTER.VDW>
-15.5097

>  <SCORE.INTER.norm>
-0.381856

>  <SCORE.INTRA>
1.17186

>  <SCORE.INTRA.DIHEDRAL>
1.11891

>  <SCORE.INTRA.DIHEDRAL.0>
1.67486

>  <SCORE.INTRA.POLAR>
0.210791

>  <SCORE.INTRA.POLAR.0>
-0.210791

>  <SCORE.INTRA.REPUL>
0

>  <SCORE.INTRA.REPUL.0>
0

>  <SCORE.INTRA.VDW>
-0.104286

>  <SCORE.INTRA.VDW.0>
-0.112905

>  <SCORE.INTRA.norm>
0.0732412

>  <SCORE.RESTR>
0

>  <SCORE.RESTR.CAVITY>
0

>  <SCORE.RESTR.norm>
0

>  <SCORE.SYSTEM>
-1.50472

>  <SCORE.SYSTEM.CONST>
0

>  <SCORE.SYSTEM.DIHEDRAL>
0.51814

>  <SCORE.SYSTEM.POLAR>
-0.503106

>  <SCORE.SYSTEM.VDW>
-0.0532247

>  <SCORE.SYSTEM.norm>
-0.0940448

>  <SCORE.heavy>
16

>  <SCORE.norm>
-0.40266

>  <enum_code>
M

>  <enum_smi>
CCC(CC)[NH2+]c1[nH+]cnc2c1ncn2C

>  <sha256>
1c5e02397d5873f6efa1b3fea650d685ce255b2bb069a261985e6139479ba70b

>  <std_smi>
CCC(CC)Nc1ncnc2c1ncn2C

>  <uuid>
e1da5efe-8ef9-4fc9-97c5-8bb654210c5a

$$$$
e1da5efe-8ef9-4fc9-97c5-8bb654210c5a
  rDOCK(R)          3D
libRbt.so/2013.1/901 2013/11/27
 19 20  0  0  0  0  0  0  0  0999 V2000
    1.1151   32.9978   -0.5640 C   0  0  0  0  0  0
    0.1485   31.9230   -0.0832 C   0  0  0  0  0  0
   -0.9401   32.3898    0.9023 C   0  0  0  0  0  0
   -0.3628   32.7616    2.2786 C   0  0  0  0  0  0
   -1.3808   33.4110    3.2088 C   0  0  0  0  0  0
   -1.9999   31.3396    1.0865 N   0  3  0  0  0  0
   -1.5337   30.0502    1.5938 C   0  0  0  0  0  0
   -0.8713   29.0852    0.9455 N   0  3  0  0  0  0
   -0.5157   27.9305    1.5325 C   0  0  0  0  0  0
   -0.7736   27.5860    2.8042 N   0  0  0  0  0  0
   -1.4547   28.5406    3.4500 C   0  0  0  0  0  0
   -1.8544   29.7504    2.9190 C   0  0  0  0  0  0
   -2.5419   30.4973    3.8361 N   0  0  0  0  0  0
   -2.5586   29.7528    4.9285 C   0  0  0  0  0  0
   -1.9102   28.5578    4.7412 N   0  0  0  0  0  0
   -1.7435   27.5117    5.7216 C   0  0  0  0  0  0
   -2.6879   31.6842    1.7908 H   0  0  0  0  0  0
   -2.5787   31.1945    0.2476 H   0  0  0  0  0  0
   -0.6127   29.1973   -0.0326 H   0  0  0  0  0  0
  1  2  1  0  0  0
  2  3  1  0  0  0
  3  4  1  0  0  0
  4  5  1  0  0  0
  3  6  1  0  0  0
  6  7  1  0  0  0
  7  8  2  0  0  0
  8  9  1  0  0  0
  9 10  2  0  0  0
 10 11  1  0  0  0
 11 12  2  0  0  0
 12 13  1  0  0  0
 13 14  2  0  0  0
 14 15  1  0  0  0
 15 16  1  0  0  0
 12  7  1  0  0  0
 15 11  1  0  0  0
  6 17  1  0  0  0
  6 18  1  0  0  0
  8 19  1  0  0  0
M  END
>  <CHROM.0>
-59.88758699,69.11032941

>  <CHROM.1>
-69.43938708,171.85531557,59.25735698,-75.49081912,-1.18831820,30.30129047
2.43097143,-0.89661707,-1.12267355,3.03087868

>  <Name>
e1da5efe-8ef9-4fc9-97c5-8bb654210c5a

>  <RI>
2.33936e+07

>  <Rbt.Current_Directory>
/data/work/jku/5V6S/work/40/8dba899c20c42488f2b1a17844994e

>  <Rbt.Executable>
rbdock ($Id: //depot/dev/client3/rdock/2013.1/src/exe/rbdock.cxx#4 $)

>  <Rbt.Library>
libRbt.so (2013.1, Build901 2013/11/27)

>  <Rbt.Parameter_File>
/rDock_2013.1_src/data/scripts/dock.prm

>  <Rbt.Receptor>
docking.prm

>  <SCORE>
-16.917

>  <SCORE.INTER>
-15.1023

>  <SCORE.INTER.CONST>
1

>  <SCORE.INTER.POLAR>
-1.40312

>  <SCORE.INTER.REPUL>
0

>  <SCORE.INTER.ROT>
4

>  <SCORE.INTER.VDW>
-19.7317

>  <SCORE.INTER.norm>
-0.943896

>  <SCORE.INTRA>
-0.301199

>  <SCORE.INTRA.DIHEDRAL>
-0.216117

>  <SCORE.INTRA.DIHEDRAL.0>
1.67486

>  <SCORE.INTRA.POLAR>
0.0540829

>  <SCORE.INTRA.POLAR.0>
-0.210791

>  <SCORE.INTRA.REPUL>
0

>  <SCORE.INTRA.REPUL.0>
0

>  <SCORE.INTRA.VDW>
-0.377022

>  <SCORE.INTRA.VDW.0>
-0.112905

>  <SCORE.INTRA.norm>
-0.0188249

>  <SCORE.RESTR>
0

>  <SCORE.RESTR.CAVITY>
0

>  <SCORE.RESTR.norm>
0

>  <SCORE.SYSTEM>
-1.51348

>  <SCORE.SYSTEM.CONST>
0

>  <SCORE.SYSTEM.DIHEDRAL>
0.409503

>  <SCORE.SYSTEM.POLAR>
-0.503048

>  <SCORE.SYSTEM.VDW>
-0.00786558

>  <SCORE.SYSTEM.norm>
-0.0945924

>  <SCORE.heavy>
16

>  <SCORE.norm>
-1.05731

>  <enum_code>
M

>  <enum_smi>
CCC(CC)[NH2+]c1[nH+]cnc2c1ncn2C

>  <sha256>
1c5e02397d5873f6efa1b3fea650d685ce255b2bb069a261985e6139479ba70b

>  <std_smi>
CCC(CC)Nc1ncnc2c1ncn2C

>  <uuid>
e1da5efe-8ef9-4fc9-97c5-8bb654210c5a

$$$$
c22cdda9-40ef-47d6-bc8a-4e0fc1148f62
  rDOCK(R)          3D
libRbt.so/2013.1/901 2013/11/27
 18 19  0  0  0  0  0  0  0  0999 V2000
   -2.4031   30.0284    6.0668 C   0  0  0  0  0  0
   -2.1221   30.6832    4.7218 C   0  0  0  0  0  0
   -1.7632   29.6780    3.6075 C   0  0  0  0  0  0
   -1.4125   30.3862    2.2847 C   0  0  0  0  0  0
   -0.9971   29.4117    1.1878 C   0  0  0  0  0  0
   -2.9133   28.7845    3.3583 N   0  0  0  0  0  0
   -2.8584   27.5195    3.9401 C   0  0  0  0  0  0
   -3.8879   27.0509    4.6486 N   0  3  0  0  0  0
   -3.8983   25.8697    5.2686 C   0  0  0  0  0  0
   -2.8922   24.9784    5.2881 N   0  0  0  0  0  0
   -1.8343   25.4480    4.6076 C   0  0  0  0  0  0
   -1.7465   26.6627    3.9441 C   0  0  0  0  0  0
   -0.5100   26.8080    3.3621 N   0  0  0  0  0  0
    0.1461   25.7057    3.6663 C   0  0  0  0  0  0
   -0.6167   24.8533    4.4171 N   0  0  0  0  0  0
   -0.2131   23.5655    4.9216 C   0  0  0  0  0  0
   -3.7844   29.2403    3.6657 H   0  0  0  0  0  0
   -4.6873   27.6687    4.7399 H   0  0  0  0  0  0
  1  2  1  0  0  0
  2  3  1  0  0  0
  3  4  1  0  0  0
  4  5  1  0  0  0
  3  6  1  0  0  0
  6  7  1  0  0  0
  7  8  2  0  0  0
  8  9  1  0  0  0
  9 10  2  0  0  0
 10 11  1  0  0  0
 11 12  2  0  0  0
 12 13  1  0  0  0
 13 14  2  0  0  0
 14 15  1  0  0  0
 15 16  1  0  0  0
 12  7  1  0  0  0
 15 11  1  0  0  0
  6 17  1  0  0  0
  8 18  1  0  0  0
M  END
>  <CHROM.0>
-59.88758699,69.01034649

>  <CHROM.1>
-176.91014540,177.54325382,-100.19785703,130.03755994,-1.87539590,27.38006815
4.07780543,1.71930301,0.68971416,-0.32975076

>  <Name>
c22cdda9-40ef-47d6-bc8a-4e0fc1148f62

>  <RI>
2.11285e+07

>  <Rbt.Current_Directory>
/data/work/jku/5V6S/work/40/8dba899c20c42488f2b1a17844994e

>  <Rbt.Executable>
rbdock ($Id: //depot/dev/client3/rdock/2013.1/src/exe/rbdock.cxx#4 $)

>  <Rbt.Library>
libRbt.so (2013.1, Build901 2013/11/27)

>  <Rbt.Parameter_File>
/rDock_2013.1_src/data/scripts/dock.prm

>  <Rbt.Receptor>
docking.prm

>  <SCORE>
-7.37567

>  <SCORE.INTER>
-5.70292

>  <SCORE.INTER.CONST>
1

>  <SCORE.INTER.POLAR>
0

>  <SCORE.INTER.REPUL>
0

>  <SCORE.INTER.ROT>
4

>  <SCORE.INTER.VDW>
-15.1029

>  <SCORE.INTER.norm>
-0.356433

>  <SCORE.INTRA>
-0.159129

>  <SCORE.INTRA.DIHEDRAL>
1.08866

>  <SCORE.INTRA.DIHEDRAL.0>
1.13717

>  <SCORE.INTRA.POLAR>
0

>  <SCORE.INTRA.POLAR.0>
0

>  <SCORE.INTRA.REPUL>
0

>  <SCORE.INTRA.REPUL.0>
0

>  <SCORE.INTRA.VDW>
-0.703457

>  <SCORE.INTRA.VDW.0>
-0.424412

>  <SCORE.INTRA.norm>
-0.00994557

>  <SCORE.RESTR>
0

>  <SCORE.RESTR.CAVITY>
0

>  <SCORE.RESTR.norm>
0

>  <SCORE.SYSTEM>
-1.51362

>  <SCORE.SYSTEM.CONST>
0

>  <SCORE.SYSTEM.DIHEDRAL>
0.400894

>  <SCORE.SYSTEM.POLAR>
-0.502992

>  <SCORE.SYSTEM.VDW>
-0.00389429

>  <SCORE.SYSTEM.norm>
-0.0946013

>  <SCORE.heavy>
16

>  <SCORE.norm>
-0.46098

>  <enum_code>
M

>  <enum_smi>
CCC(CC)Nc1[nH+]cnc2c1ncn2C

>  <sha256>
1c5e02397d5873f6efa1b3fea650d685ce255b2bb069a261985e6139479ba70b

>  <std_smi>
CCC(CC)Nc1ncnc2c1ncn2C

>  <uuid>
c22cdda9-40ef-47d6-bc8a-4e0fc1148f62

$$$$
c22cdda9-40ef-47d6-bc8a-4e0fc1148f62
  rDOCK(R)          3D
libRbt.so/2013.1/901 2013/11/27
 18 19  0  0  0  0  0  0  0  0999 V2000
   -2.0735   33.1098    3.4118 C   0  0  0  0  0  0
   -1.2809   33.4921    2.1699 C   0  0  0  0  0  0
   -0.3994   32.3499    1.6229 C   0  0  0  0  0  0
    0.5121   32.8255    0.4751 C   0  0  0  0  0  0
    1.5140   31.7615    0.0400 C   0  0  0  0  0  0
   -1.2595   31.2654    1.1061 N   0  0  0  0  0  0
   -1.0166   29.9861    1.6019 C   0  0  0  0  0  0
   -0.4968   29.0395    0.8176 N   0  3  0  0  0  0
   -0.2715   27.7826    1.2043 C   0  0  0  0  0  0
   -0.5325   27.2709    2.4196 N   0  0  0  0  0  0
   -1.0876   28.2012    3.2127 C   0  0  0  0  0  0
   -1.3565   29.5209    2.8820 C   0  0  0  0  0  0
   -1.9317   30.1783    3.9430 N   0  0  0  0  0  0
   -2.0156   29.2777    4.9022 C   0  0  0  0  0  0
   -1.5150   28.0675    4.5057 N   0  0  0  0  0  0
   -1.4526   26.8673    5.3003 C   0  0  0  0  0  0
   -2.2498   31.4919    1.2769 H   0  0  0  0  0  0
   -0.3062   29.3073   -0.1421 H   0  0  0  0  0  0
  1  2  1  0  0  0
  2  3  1  0  0  0
  3  4  1  0  0  0
  4  5  1  0  0  0
  3  6  1  0  0  0
  6  7  1  0  0  0
  7  8  2  0  0  0
  8  9  1  0  0  0
  9 10  2  0  0  0
 10 11  1  0  0  0
 11 12  2  0  0  0
 12 13  1  0  0  0
 13 14  2  0  0  0
 14 15  1  0  0  0
 15 16  1  0  0  0
 12  7  1  0  0  0
 15 11  1  0  0  0
  6 17  1  0  0  0
  8 18  1  0  0  0
M  END
>  <CHROM.0>
-59.88758699,69.20812925

>  <CHROM.1>
-173.05380146,172.72935798,-126.67685459,-110.62956065,-0.91007867,30.09908722
2.46066488,1.19511717,1.02481350,-0.21476694

>  <Name>
c22cdda9-40ef-47d6-bc8a-4e0fc1148f62

>  <RI>
2.11285e+07

>  <Rbt.Current_Directory>
/data/work/jku/5V6S/work/40/8dba899c20c42488f2b1a17844994e

>  <Rbt.Executable>
rbdock ($Id: //depot/dev/client3/rdock/2013.1/src/exe/rbdock.cxx#4 $)

>  <Rbt.Library>
libRbt.so (2013.1, Build901 2013/11/27)

>  <Rbt.Parameter_File>
/rDock_2013.1_src/data/scripts/dock.prm

>  <Rbt.Receptor>
docking.prm

>  <SCORE>
-15.3013

>  <SCORE.INTER>
-14.5055

>  <SCORE.INTER.CONST>
1

>  <SCORE.INTER.POLAR>
-1.40312

>  <SCORE.INTER.REPUL>
0.047372

>  <SCORE.INTER.ROT>
4

>  <SCORE.INTER.VDW>
-19.3717

>  <SCORE.INTER.norm>
-0.906594

>  <SCORE.INTRA>
0.717492

>  <SCORE.INTRA.DIHEDRAL>
2.06934

>  <SCORE.INTRA.DIHEDRAL.0>
1.13717

>  <SCORE.INTRA.POLAR>
0

>  <SCORE.INTRA.POLAR.0>
0

>  <SCORE.INTRA.REPUL>
0

>  <SCORE.INTRA.REPUL.0>
0

>  <SCORE.INTRA.VDW>
-0.317178

>  <SCORE.INTRA.VDW.0>
-0.424412

>  <SCORE.INTRA.norm>
0.0448433

>  <SCORE.RESTR>
0

>  <SCORE.RESTR.CAVITY>
0

>  <SCORE.RESTR.norm>
0

>  <SCORE.SYSTEM>
-1.51325

>  <SCORE.SYSTEM.CONST>
0

>  <SCORE.SYSTEM.DIHEDRAL>
0.418009

>  <SCORE.SYSTEM.POLAR>
-0.503096

>  <SCORE.SYSTEM.VDW>
-0.0117282

>  <SCORE.SYSTEM.norm>
-0.0945781

>  <SCORE.heavy>
16

>  <SCORE.norm>
-0.956328

>  <enum_code>
M

>  <enum_smi>
CCC(CC)Nc1[nH+]cnc2c1ncn2C

>  <sha256>
1c5e02397d5873f6efa1b3fea650d685ce255b2bb069a261985e6139479ba70b

>  <std_smi>
CCC(CC)Nc1ncnc2c1ncn2C

>  <uuid>
c22cdda9-40ef-47d6-bc8a-4e0fc1148f62

$$$$
c22cdda9-40ef-47d6-bc8a-4e0fc1148f62
  rDOCK(R)          3D
libRbt.so/2013.1/901 2013/11/27
 18 19  0  0  0  0  0  0  0  0999 V2000
   -3.7814   32.7332    3.1137 C   0  0  0  0  0  0
   -4.0207   32.0332    4.4440 C   0  0  0  0  0  0
   -3.5145   30.5759    4.4756 C   0  0  0  0  0  0
   -3.9514   29.8427    5.7587 C   0  0  0  0  0  0
   -5.4475   29.5497    5.7883 C   0  0  0  0  0  0
   -2.0381   30.5638    4.4208 N   0  0  0  0  0  0
   -1.4610   30.4983    3.1541 C   0  0  0  0  0  0
   -1.4026   29.3409    2.4919 N   0  3  0  0  0  0
   -0.8327   29.1873    1.2954 C   0  0  0  0  0  0
   -0.2294   30.1507    0.5778 N   0  0  0  0  0  0
   -0.2491   31.3161    1.2442 C   0  0  0  0  0  0
   -0.8150   31.5517    2.4882 C   0  0  0  0  0  0
   -0.6400   32.8635    2.8590 N   0  0  0  0  0  0
    0.0222   33.4180    1.8630 C   0  0  0  0  0  0
    0.2787   32.5197    0.8632 N   0  0  0  0  0  0
    0.9810   32.7874   -0.3661 C   0  0  0  0  0  0
   -1.6626   31.3945    4.9006 H   0  0  0  0  0  0
   -1.7881   28.5323    2.9678 H   0  0  0  0  0  0
  1  2  1  0  0  0
  2  3  1  0  0  0
  3  4  1  0  0  0
  4  5  1  0  0  0
  3  6  1  0  0  0
  6  7  1  0  0  0
  7  8  2  0  0  0
  8  9  1  0  0  0
  9 10  2  0  0  0
 10 11  1  0  0  0
 11 12  2  0  0  0
 12 13  1  0  0  0
 13 14  2  0  0  0
 14 15  1  0  0  0
 15 16  1  0  0  0
 12  7  1  0  0  0
 15 11  1  0  0  0
  6 17  1  0  0  0
  8 18  1  0  0  0
M  END
>  <CHROM.0>
-59.88758699,67.99221372

>  <CHROM.1>
-171.87901832,70.61736976,-90.79540905,-78.05515981,-1.73587896,31.18245132
2.80769667,2.89032499,-0.77217330,-3.12882605

>  <Name>
c22cdda9-40ef-47d6-bc8a-4e0fc1148f62

>  <RI>
2.11285e+07

>  <Rbt.Current_Directory>
/data/work/jku/5V6S/work/40/8dba899c20c42488f2b1a17844994e

>  <Rbt.Executable>
rbdock ($Id: //depot/dev/client3/rdock/2013.1/src/exe/rbdock.cxx#4 $)

>  <Rbt.Library>
libRbt.so (2013.1, Build901 2013/11/27)

>  <Rbt.Parameter_File>
/rDock_2013.1_src/data/scripts/dock.prm

>  <Rbt.Receptor>
docking.prm

>  <SCORE>
-8.50339

>  <SCORE.INTER>
-7.2883

>  <SCORE.INTER.CONST>
1

>  <SCORE.INTER.POLAR>
0

>  <SCORE.INTER.REPUL>
0.125594

>  <SCORE.INTER.ROT>
4

>  <SCORE.INTER.VDW>
-17.3163

>  <SCORE.INTER.norm>
-0.455519

>  <SCORE.INTRA>
0.293124

>  <SCORE.INTRA.DIHEDRAL>
1.14114

>  <SCORE.INTRA.DIHEDRAL.0>
1.13717

>  <SCORE.INTRA.POLAR>
0

>  <SCORE.INTRA.POLAR.0>
0

>  <SCORE.INTRA.REPUL>
0

>  <SCORE.INTRA.REPUL.0>
0

>  <SCORE.INTRA.VDW>
-0.277446

>  <SCORE.INTRA.VDW.0>
-0.424412

>  <SCORE.INTRA.norm>
0.0183202

>  <SCORE.RESTR>
0.00143583

>  <SCORE.RESTR.CAVITY>
0.00143583

>  <SCORE.RESTR.norm>
8.97391e-05

>  <SCORE.SYSTEM>
-1.50965

>  <SCORE.SYSTEM.CONST>
0

>  <SCORE.SYSTEM.DIHEDRAL>
0.318271

>  <SCORE.SYSTEM.POLAR>
-0.501956

>  <SCORE.SYSTEM.VDW>
0.03786

>  <SCORE.SYSTEM.norm>
-0.0943534

>  <SCORE.heavy>
16

>  <SCORE.norm>
-0.531462

>  <enum_code>
M

>  <enum_smi>
CCC(CC)Nc1[nH+]cnc2c1ncn2C

>  <sha256>
1c5e02397d5873f6efa1b3fea650d685ce255b2bb069a261985e6139479ba70b

>  <std_smi>
CCC(CC)Nc1ncnc2c1ncn2C

>  <uuid>
c22cdda9-40ef-47d6-bc8a-4e0fc1148f62

$$$$
c22cdda9-40ef-47d6-bc8a-4e0fc1148f62
  rDOCK(R)          3D
libRbt.so/2013.1/901 2013/11/27
 18 19  0  0  0  0  0  0  0  0999 V2000
   -2.2388   27.7079    3.6018 C   0  0  0  0  0  0
   -3.5041   27.8182    4.4407 C   0  0  0  0  0  0
   -4.1038   26.4530    4.8377 C   0  0  0  0  0  0
   -5.5070   26.5992    5.4575 C   0  0  0  0  0  0
   -6.5628   27.0035    4.4343 C   0  0  0  0  0  0
   -3.2289   25.7990    5.8327 N   0  0  0  0  0  0
   -2.1228   25.1126    5.3357 C   0  0  0  0  0  0
   -0.8884   25.5845    5.5229 N   0  3  0  0  0  0
    0.2168   25.0090    5.0462 C   0  0  0  0  0  0
    0.2681   23.8869    4.3078 N   0  0  0  0  0  0
   -0.9686   23.4159    4.0808 C   0  0  0  0  0  0
   -2.1605   23.9593    4.5364 C   0  0  0  0  0  0
   -3.2296   23.2114    4.1047 N   0  0  0  0  0  0
   -2.7022   22.2322    3.3968 C   0  0  0  0  0  0
   -1.3369   22.3148    3.3568 N   0  0  0  0  0  0
   -0.4463   21.4116    2.6735 C   0  0  0  0  0  0
   -2.8938   26.4939    6.5154 H   0  0  0  0  0  0
   -0.8154   26.4602    6.0297 H   0  0  0  0  0  0
  1  2  1  0  0  0
  2  3  1  0  0  0
  3  4  1  0  0  0
  4  5  1  0  0  0
  3  6  1  0  0  0
  6  7  1  0  0  0
  7  8  2  0  0  0
  8  9  1  0  0  0
  9 10  2  0  0  0
 10 11  1  0  0  0
 11 12  2  0  0  0
 12 13  1  0  0  0
 13 14  2  0  0  0
 14 15  1  0  0  0
 15 16  1  0  0  0
 12  7  1  0  0  0
 15 11  1  0  0  0
  6 17  1  0  0  0
  8 18  1  0  0  0
M  END
>  <CHROM.0>
-59.88758699,68.29690023

>  <CHROM.1>
-169.56974169,70.74736662,-82.20096056,109.53330961,-2.43270013,24.89002804
4.43443441,-2.28867695,0.07698338,-2.81726448

>  <Name>
c22cdda9-40ef-47d6-bc8a-4e0fc1148f62

>  <RI>
2.11285e+07

>  <Rbt.Current_Directory>
/data/work/jku/5V6S/work/40/8dba899c20c42488f2b1a17844994e

>  <Rbt.Executable>
rbdock ($Id: //depot/dev/client3/rdock/2013.1/src/exe/rbdock.cxx#4 $)

>  <Rbt.Library>
libRbt.so (2013.1, Build901 2013/11/27)

>  <Rbt.Parameter_File>
/rDock_2013.1_src/data/scripts/dock.prm

>  <Rbt.Receptor>
docking.prm

>  <SCORE>
-9.18653

>  <SCORE.INTER>
-7.77229

>  <SCORE.INTER.CONST>
1

>  <SCORE.INTER.POLAR>
0

>  <SCORE.INTER.REPUL>
0

>  <SCORE.INTER.ROT>
4

>  <SCORE.INTER.VDW>
-17.1723

>  <SCORE.INTER.norm>
-0.485768

>  <SCORE.INTRA>
0.0976444

>  <SCORE.INTRA.DIHEDRAL>
0.884673

>  <SCORE.INTRA.DIHEDRAL.0>
1.13717

>  <SCORE.INTRA.POLAR>
0

>  <SCORE.INTRA.POLAR.0>
0

>  <SCORE.INTRA.REPUL>
0

>  <SCORE.INTRA.REPUL.0>
0

>  <SCORE.INTRA.VDW>
-0.344692

>  <SCORE.INTRA.VDW.0>
-0.424412

>  <SCORE.INTRA.norm>
0.00610277

>  <SCORE.RESTR>
0

>  <SCORE.RESTR.CAVITY>
0

>  <SCORE.RESTR.norm>
0

>  <SCORE.SYSTEM>
-1.51188

>  <SCORE.SYSTEM.CONST>
0

>  <SCORE.SYSTEM.DIHEDRAL>
0.342027

>  <SCORE.SYSTEM.POLAR>
-0.502355

>  <SCORE.SYSTEM.VDW>
0.025111

>  <SCORE.SYSTEM.norm>
-0.0944927

>  <SCORE.heavy>
16

>  <SCORE.norm>
-0.574158

>  <enum_code>
M

>  <enum_smi>
CCC(CC)Nc1[nH+]cnc2c1ncn2C

>  <sha256>
1c5e02397d5873f6efa1b3fea650d685ce255b2bb069a261985e6139479ba70b

>  <std_smi>
CCC(CC)Nc1ncnc2c1ncn2C

>  <uuid>
c22cdda9-40ef-47d6-bc8a-4e0fc1148f62

$$$$
c22cdda9-40ef-47d6-bc8a-4e0fc1148f62
  rDOCK(R)          3D
libRbt.so/2013.1/901 2013/11/27
 18 19  0  0  0  0  0  0  0  0999 V2000
   -3.9906   28.8906    3.9381 C   0  0  0  0  0  0
   -3.9585   27.7659    4.9633 C   0  0  0  0  0  0
   -4.7195   26.5001    4.5167 C   0  0  0  0  0  0
   -6.2419   26.7326    4.4638 C   0  0  0  0  0  0
   -6.9988   25.5430    3.8830 C   0  0  0  0  0  0
   -4.4560   25.4024    5.4700 N   0  0  0  0  0  0
   -3.2056   24.7928    5.3898 C   0  0  0  0  0  0
   -2.1774   25.2518    6.1063 N   0  3  0  0  0  0
   -0.9423   24.7499    6.0559 C   0  0  0  0  0  0
   -0.5363   23.7255    5.2860 N   0  0  0  0  0  0
   -1.5509   23.2721    4.5324 C   0  0  0  0  0  0
   -2.8550   23.7438    4.5254 C   0  0  0  0  0  0
   -3.6186   23.0420    3.6236 N   0  0  0  0  0  0
   -2.7971   22.1610    3.0879 C   0  0  0  0  0  0
   -1.5360   22.2624    3.6091 N   0  0  0  0  0  0
   -0.3961   21.4578    3.2498 C   0  0  0  0  0  0
   -4.5872   25.7374    6.4353 H   0  0  0  0  0  0
   -2.3631   26.0608    6.6895 H   0  0  0  0  0  0
  1  2  1  0  0  0
  2  3  1  0  0  0
  3  4  1  0  0  0
  4  5  1  0  0  0
  3  6  1  0  0  0
  6  7  1  0  0  0
  7  8  2  0  0  0
  8  9  1  0  0  0
  9 10  2  0  0  0
 10 11  1  0  0  0
 11 12  2  0  0  0
 12 13  1  0  0  0
 13 14  2  0  0  0
 14 15  1  0  0  0
 15 16  1  0  0  0
 12  7  1  0  0  0
 15 11  1  0  0  0
  6 17  1  0  0  0
  8 18  1  0  0  0
M  END
>  <CHROM.0>
-59.88758699,68.79739048

>  <CHROM.1>
-68.96462156,173.85889123,-75.07941016,89.98206880,-3.15679996,24.74960003
4.54284699,-2.33456757,0.34607804,-2.73276685

>  <Name>
c22cdda9-40ef-47d6-bc8a-4e0fc1148f62

>  <RI>
2.11285e+07

>  <Rbt.Current_Directory>
/data/work/jku/5V6S/work/40/8dba899c20c42488f2b1a17844994e

>  <Rbt.Executable>
rbdock ($Id: //depot/dev/client3/rdock/2013.1/src/exe/rbdock.cxx#4 $)

>  <Rbt.Library>
libRbt.so (2013.1, Build901 2013/11/27)

>  <Rbt.Parameter_File>
/rDock_2013.1_src/data/scripts/dock.prm

>  <Rbt.Receptor>
docking.prm

>  <SCORE>
-9.16816

>  <SCORE.INTER>
-7.38705

>  <SCORE.INTER.CONST>
1

>  <SCORE.INTER.POLAR>
0

>  <SCORE.INTER.REPUL>
0

>  <SCORE.INTER.ROT>
4

>  <SCORE.INTER.VDW>
-16.7871

>  <SCORE.INTER.norm>
-0.461691

>  <SCORE.INTRA>
-0.267496

>  <SCORE.INTRA.DIHEDRAL>
0.164524

>  <SCORE.INTRA.DIHEDRAL.0>
1.13717

>  <SCORE.INTRA.POLAR>
0

>  <SCORE.INTRA.POLAR.0>
0

>  <SCORE.INTRA.REPUL>
0

>  <SCORE.INTRA.REPUL.0>
0

>  <SCORE.INTRA.VDW>
-0.349758

>  <SCORE.INTRA.VDW.0>
-0.424412

>  <SCORE.INTRA.norm>
-0.0167185

>  <SCORE.RESTR>
0

>  <SCORE.RESTR.CAVITY>
0

>  <SCORE.RESTR.norm>
0

>  <SCORE.SYSTEM>
-1.51361

>  <SCORE.SYSTEM.CONST>
0

>  <SCORE.SYSTEM.DIHEDRAL>
0.38285

>  <SCORE.SYSTEM.POLAR>
-0.502845

>  <SCORE.SYSTEM.VDW>
0.00464041

>  <SCORE.SYSTEM.norm>
-0.0946006

>  <SCORE.heavy>
16

>  <SCORE.norm>
-0.57301

>  <enum_code>
M

>  <enum_smi>
CCC(CC)Nc1[nH+]cnc2c1ncn2C

>  <sha256>
1c5e02397d5873f6efa1b3fea650d685ce255b2bb069a261985e6139479ba70b

>  <std_smi>
CCC(CC)Nc1ncnc2c1ncn2C

>  <uuid>
c22cdda9-40ef-47d6-bc8a-4e0fc1148f62

$$$$
f19d88ba-908e-447f-9168-40c86eb61157
  rDOCK(R)          3D
libRbt.so/2013.1/901 2013/11/27
 17 18  0  0  0  0  0  0  0  0999 V2000
   -0.4682   21.1759    1.9146 Cl  0  0  0  0  0  0
   -1.0290   22.2385    3.1320 C   0  0  0  0  0  0
   -0.1610   22.9595    3.9209 C   0  0  0  0  0  0
   -0.7074   23.7994    4.8891 C   0  0  0  0  0  0
   -2.0891   23.8830    5.0349 C   0  0  0  0  0  0
   -2.5985   24.7648    6.0061 N   0  0  0  0  0  0
   -2.9000   26.1234    5.5374 C   0  0  0  0  0  0
   -1.7493   27.0951    5.8487 C   0  0  0  0  0  0
   -1.9584   28.5607    5.5014 C   0  0  0  0  0  0
   -2.1441   29.5509    6.3957 C   0  0  0  0  0  0
   -2.3153   30.9973    6.0244 C   0  0  0  0  0  0
   -1.9402   31.2999    4.5752 C   0  0  0  0  0  0
   -2.4856   30.2300    3.6395 C   0  0  0  0  0  0
   -1.9489   28.8463    4.0123 C   0  0  0  0  0  0
   -2.8902   23.1602    4.2230 N   0  0  0  0  0  0
   -2.3629   22.3221    3.2658 N   0  0  0  0  0  0
   -3.4112   24.3356    6.4410 H   0  0  0  0  0  0
  1  2  1  0  0  0
  2  3  2  0  0  0
  3  4  1  0  0  0
  4  5  2  0  0  0
  5  6  1  0  0  0
  6  7  1  0  0  0
  7  8  1  0  0  0
  8  9  1  0  0  0
  9 10  2  0  0  0
 10 11  1  0  0  0
 11 12  1  0  0  0
 12 13  1  0  0  0
 13 14  1  0  0  0
  5 15  1  0  0  0
 15 16  2  0  0  0
 16  2  1  0  0  0
 14  9  1  0  0  0
  6 17  1  0  0  0
M  END
>  <CHROM.0>
-59.88758699,69.09411977

>  <CHROM.1>
91.61082870,-97.25071430,-176.12481224,108.54362731,-1.75540209,25.65352827
4.37990752,-1.21938169,1.16493901,-0.05390990

>  <Name>
f19d88ba-908e-447f-9168-40c86eb61157

>  <RI>
4.05763e+07

>  <Rbt.Current_Directory>
/data/work/jku/5V6S/work/40/8dba899c20c42488f2b1a17844994e

>  <Rbt.Executable>
rbdock ($Id: //depot/dev/client3/rdock/2013.1/src/exe/rbdock.cxx#4 $)

>  <Rbt.Library>
libRbt.so (2013.1, Build901 2013/11/27)

>  <Rbt.Parameter_File>
/rDock_2013.1_src/data/scripts/dock.prm

>  <Rbt.Receptor>
docking.prm

>  <SCORE>
-10.7297

>  <SCORE.INTER>
-8.53878

>  <SCORE.INTER.CONST>
1

>  <SCORE.INTER.POLAR>
0

>  <SCORE.INTER.REPUL>
0

>  <SCORE.INTER.ROT>
4

>  <SCORE.INTER.VDW>
-17.9388

>  <SCORE.INTER.norm>
-0.533674

>  <SCORE.INTRA>
-0.677454

>  <SCORE.INTRA.DIHEDRAL>
1.05779

>  <SCORE.INTRA.DIHEDRAL.0>
1.50832

>  <SCORE.INTRA.POLAR>
0

>  <SCORE.INTRA.POLAR.0>
0

>  <SCORE.INTRA.REPUL>
0

>  <SCORE.INTRA.REPUL.0>
0

>  <SCORE.INTRA.VDW>
-1.20635

>  <SCORE.INTRA.VDW.0>
0.329867

>  <SCORE.INTRA.norm>
-0.0423409

>  <SCORE.RESTR>
0

>  <SCORE.RESTR.CAVITY>
0

>  <SCORE.RESTR.norm>
0

>  <SCORE.SYSTEM>
-1.51351

>  <SCORE.SYSTEM.CONST>
0

>  <SCORE.SYSTEM.DIHEDRAL>
0.408101

>  <SCORE.SYSTEM.POLAR>
-0.50304

>  <SCORE.SYSTEM.VDW>
-0.00722328

>  <SCORE.SYSTEM.norm>
-0.0945943

>  <SCORE.heavy>
16

>  <SCORE.norm>
-0.670609

>  <enum_code>
B

>  <enum_smi>
Clc1ccc(NCCC2=CCCCC2)nn1

>  <sha256>
6149034aeb29bd8fa0ec2e92d34f1bde0841ca524aca24497fa6898cc79b03a9

>  <std_smi>
Clc1ccc(NCCC2=CCCCC2)nn1

>  <uuid>
f19d88ba-908e-447f-9168-40c86eb61157

$$$$
f19d88ba-908e-447f-9168-40c86eb61157
  rDOCK(R)          3D
libRbt.so/2013.1/901 2013/11/27
 17 18  0  0  0  0  0  0  0  0999 V2000
    0.8322   32.8653   -0.4239 Cl  0  0  0  0  0  0
   -0.2463   32.8125    0.9027 C   0  0  0  0  0  0
    0.1486   33.1695    2.1725 C   0  0  0  0  0  0
   -0.7973   33.0936    3.1928 C   0  0  0  0  0  0
   -2.0901   32.6629    2.9095 C   0  0  0  0  0  0
   -3.0208   32.6282    3.9645 N   0  0  0  0  0  0
   -3.2806   31.3031    4.5415 C   0  0  0  0  0  0
   -4.1437   30.4404    3.6054 C   0  0  0  0  0  0
   -4.4892   29.0345    4.0709 C   0  0  0  0  0  0
   -4.0732   27.8977    3.4800 C   0  0  0  0  0  0
   -4.4035   26.5201    3.9822 C   0  0  0  0  0  0
   -4.9778   26.5120    5.3973 C   0  0  0  0  0  0
   -6.0018   27.6249    5.5729 C   0  0  0  0  0  0
   -5.3787   28.9953    5.2982 C   0  0  0  0  0  0
   -2.4217   32.3376    1.6415 N   0  0  0  0  0  0
   -1.4949   32.4029    0.6249 N   0  0  0  0  0  0
   -2.7284   33.2906    4.6783 H   0  0  0  0  0  0
  1  2  1  0  0  0
  2  3  2  0  0  0
  3  4  1  0  0  0
  4  5  2  0  0  0
  5  6  1  0  0  0
  6  7  1  0  0  0
  7  8  1  0  0  0
  8  9  1  0  0  0
  9 10  2  0  0  0
 10 11  1  0  0  0
 11 12  1  0  0  0
 12 13  1  0  0  0
 13 14  1  0  0  0
  5 15  1  0  0  0
 15 16  2  0  0  0
 16  2  1  0  0  0
 14  9  1  0  0  0
  6 17  1  0  0  0
M  END
>  <CHROM.0>
-59.88758699,-62.39013739

>  <CHROM.1>
-101.60655783,-74.06319806,179.73012535,-114.60812194,-2.56269910,30.82344892
2.88194809,-0.39494722,-0.85976970,-2.75043561

>  <Name>
f19d88ba-908e-447f-9168-40c86eb61157

>  <RI>
4.05763e+07

>  <Rbt.Current_Directory>
/data/work/jku/5V6S/work/40/8dba899c20c42488f2b1a17844994e

>  <Rbt.Executable>
rbdock ($Id: //depot/dev/client3/rdock/2013.1/src/exe/rbdock.cxx#4 $)

>  <Rbt.Library>
libRbt.so (2013.1, Build901 2013/11/27)

>  <Rbt.Parameter_File>
/rDock_2013.1_src/data/scripts/dock.prm

>  <Rbt.Receptor>
docking.prm

>  <SCORE>
-12.3199

>  <SCORE.INTER>
-12.4262

>  <SCORE.INTER.CONST>
1

>  <SCORE.INTER.POLAR>
-0.894427

>  <SCORE.INTER.REPUL>
0

>  <SCORE.INTER.ROT>
4

>  <SCORE.INTER.VDW>
-18.7852

>  <SCORE.INTER.norm>
-0.776638

>  <SCORE.INTRA>
-0.914988

>  <SCORE.INTRA.DIHEDRAL>
-0.576376

>  <SCORE.INTRA.DIHEDRAL.0>
1.50832

>  <SCORE.INTRA.POLAR>
0

>  <SCORE.INTRA.POLAR.0>
0

>  <SCORE.INTRA.REPUL>
0

>  <SCORE.INTRA.REPUL.0>
0

>  <SCORE.INTRA.VDW>
-0.6268

>  <SCORE.INTRA.VDW.0>
0.329867

>  <SCORE.INTRA.norm>
-0.0571867

>  <SCORE.RESTR>
0

>  <SCORE.RESTR.CAVITY>
0

>  <SCORE.RESTR.norm>
0

>  <SCORE.SYSTEM>
1.02134

>  <SCORE.SYSTEM.CONST>
0

>  <SCORE.SYSTEM.DIHEDRAL>
0.0357858

>  <SCORE.SYSTEM.REPUL>
0.139612

>  <SCORE.SYSTEM.VDW>
0.305392

>  <SCORE.SYSTEM.norm>
0.063834

>  <SCORE.heavy>
16

>  <SCORE.norm>
-0.769991

>  <enum_code>
B

>  <enum_smi>
Clc1ccc(NCCC2=CCCCC2)nn1

>  <sha256>
6149034aeb29bd8fa0ec2e92d34f1bde0841ca524aca24497fa6898cc79b03a9

>  <std_smi>
Clc1ccc(NCCC2=CCCCC2)nn1

>  <uuid>
f19d88ba-908e-447f-9168-40c86eb61157

$$$$
f19d88ba-908e-447f-9168-40c86eb61157
  rDOCK(R)          3D
libRbt.so/2013.1/901 2013/11/27
 17 18  0  0  0  0  0  0  0  0999 V2000
   -5.0219   30.9315    4.9270 Cl  0  0  0  0  0  0
   -3.6045   31.5689    4.2126 C   0  0  0  0  0  0
   -3.6064   32.7759    3.5502 C   0  0  0  0  0  0
   -2.4055   33.2161    2.9975 C   0  0  0  0  0  0
   -1.2583   32.4380    3.1220 C   0  0  0  0  0  0
   -0.0611   32.9339    2.5732 N   0  0  0  0  0  0
    0.0397   32.8777    1.1093 C   0  0  0  0  0  0
    0.2037   31.4320    0.6109 C   0  0  0  0  0  0
   -0.9022   30.4453    0.9511 C   0  0  0  0  0  0
   -0.7299   29.2855    1.6144 C   0  0  0  0  0  0
   -1.8479   28.3446    1.9663 C   0  0  0  0  0  0
   -3.2351   28.9608    1.7971 C   0  0  0  0  0  0
   -3.3210   29.7544    0.5006 C   0  0  0  0  0  0
   -2.2748   30.8706    0.4674 C   0  0  0  0  0  0
   -1.3158   31.2681    3.7941 N   0  0  0  0  0  0
   -2.4976   30.8189    4.3403 N   0  0  0  0  0  0
    0.0877   33.8789    2.9173 H   0  0  0  0  0  0
  1  2  1  0  0  0
  2  3  2  0  0  0
  3  4  1  0  0  0
  4  5  2  0  0  0
  5  6  1  0  0  0
  6  7  1  0  0  0
  7  8  1  0  0  0
  8  9  1  0  0  0
  9 10  2  0  0  0
 10 11  1  0  0  0
 11 12  1  0  0  0
 12 13  1  0  0  0
 13 14  1  0  0  0
  5 15  1  0  0  0
 15 16  2  0  0  0
 16  2  1  0  0  0
 14  9  1  0  0  0
  6 17  1  0  0  0
M  END
>  <CHROM.0>
-59.88758699,68.85400685

>  <CHROM.1>
-74.33785634,-70.99645867,59.71893481,-123.30424330,-2.25300341,31.09730187
2.62425042,2.76502339,0.63898216,0.60577038

>  <Name>
f19d88ba-908e-447f-9168-40c86eb61157

>  <RI>
4.05763e+07

>  <Rbt.Current_Directory>
/data/work/jku/5V6S/work/40/8dba899c20c42488f2b1a17844994e

>  <Rbt.Executable>
rbdock ($Id: //depot/dev/client3/rdock/2013.1/src/exe/rbdock.cxx#4 $)

>  <Rbt.Library>
libRbt.so (2013.1, Build901 2013/11/27)

>  <Rbt.Parameter_File>
/rDock_2013.1_src/data/scripts/dock.prm

>  <Rbt.Receptor>
docking.prm

>  <SCORE>
-12.7789

>  <SCORE.INTER>
-7.74566

>  <SCORE.INTER.CONST>
1

>  <SCORE.INTER.POLAR>
0

>  <SCORE.INTER.REPUL>
0

>  <SCORE.INTER.ROT>
4

>  <SCORE.INTER.VDW>
-17.1457

>  <SCORE.INTER.norm>
-0.484104

>  <SCORE.INTRA>
-3.51961

>  <SCORE.INTRA.DIHEDRAL>
-0.735965

>  <SCORE.INTRA.DIHEDRAL.0>
1.50832

>  <SCORE.INTRA.POLAR>
0

>  <SCORE.INTRA.POLAR.0>
0

>  <SCORE.INTRA.REPUL>
0

>  <SCORE.INTRA.REPUL.0>
0

>  <SCORE.INTRA.VDW>
-3.15163

>  <SCORE.INTRA.VDW.0>
0.329867

>  <SCORE.INTRA.norm>
-0.219976

>  <SCORE.RESTR>
0

>  <SCORE.RESTR.CAVITY>
0

>  <SCORE.RESTR.norm>
0

>  <SCORE.SYSTEM>
-1.51365

>  <SCORE.SYSTEM.CONST>
0

>  <SCORE.SYSTEM.DIHEDRAL>
0.387608

>  <SCORE.SYSTEM.POLAR>
-0.502888

>  <SCORE.SYSTEM.VDW>
0.00236123

>  <SCORE.SYSTEM.norm>
-0.0946034

>  <SCORE.heavy>
16

>  <SCORE.norm>
-0.798683

>  <enum_code>
B

>  <enum_smi>
Clc1ccc(NCCC2=CCCCC2)nn1

>  <sha256>
6149034aeb29bd8fa0ec2e92d34f1bde0841ca524aca24497fa6898cc79b03a9

>  <std_smi>
Clc1ccc(NCCC2=CCCCC2)nn1

>  <uuid>
f19d88ba-908e-447f-9168-40c86eb61157

$$$$
f19d88ba-908e-447f-9168-40c86eb61157
  rDOCK(R)          3D
libRbt.so/2013.1/901 2013/11/27
 17 18  0  0  0  0  0  0  0  0999 V2000
    0.6947   32.8826   -0.4635 Cl  0  0  0  0  0  0
   -0.1568   32.6080    0.9944 C   0  0  0  0  0  0
    0.0935   33.3453    2.1299 C   0  0  0  0  0  0
   -0.6473   33.0508    3.2726 C   0  0  0  0  0  0
   -1.5991   32.0358    3.2397 C   0  0  0  0  0  0
   -2.3440   31.7908    4.4082 N   0  0  0  0  0  0
   -2.0045   30.5601    5.1337 C   0  0  0  0  0  0
   -2.4891   29.3099    4.3803 C   0  0  0  0  0  0
   -1.8153   27.9879    4.7131 C   0  0  0  0  0  0
   -1.2027   27.1838    3.8227 C   0  0  0  0  0  0
   -0.5153   25.8975    4.1859 C   0  0  0  0  0  0
   -0.2865   25.7350    5.6871 C   0  0  0  0  0  0
   -1.5205   26.1578    6.4722 C   0  0  0  0  0  0
   -1.8866   27.6147    6.1810 C   0  0  0  0  0  0
   -1.8086   31.3550    2.0924 N   0  0  0  0  0  0
   -1.0793   31.6324    0.9575 N   0  0  0  0  0  0
   -2.2784   32.6056    5.0128 H   0  0  0  0  0  0
  1  2  1  0  0  0
  2  3  2  0  0  0
  3  4  1  0  0  0
  4  5  2  0  0  0
  5  6  1  0  0  0
  6  7  1  0  0  0
  7  8  1  0  0  0
  8  9  1  0  0  0
  9 10  2  0  0  0
 10 11  1  0  0  0
 11 12  1  0  0  0
 12 13  1  0  0  0
 13 14  1  0  0  0
  5 15  1  0  0  0
 15 16  2  0  0  0
 16  2  1  0  0  0
 14  9  1  0  0  0
  6 17  1  0  0  0
M  END
>  <CHROM.0>
-59.88758699,68.83017784

>  <CHROM.1>
-107.39136587,-72.12489474,158.87326768,-123.51884243,-1.00442506,30.18262756
3.23925987,-1.26782032,-0.98927516,2.73759626

>  <Name>
f19d88ba-908e-447f-9168-40c86eb61157

>  <RI>
4.05763e+07

>  <Rbt.Current_Directory>
/data/work/jku/5V6S/work/40/8dba899c20c42488f2b1a17844994e

>  <Rbt.Executable>
rbdock ($Id: //depot/dev/client3/rdock/2013.1/src/exe/rbdock.cxx#4 $)

>  <Rbt.Library>
libRbt.so (2013.1, Build901 2013/11/27)

>  <Rbt.Parameter_File>
/rDock_2013.1_src/data/scripts/dock.prm

>  <Rbt.Receptor>
docking.prm

>  <SCORE>
-16.2909

>  <SCORE.INTER>
-14.7829

>  <SCORE.INTER.CONST>
1

>  <SCORE.INTER.POLAR>
-0.894427

>  <SCORE.INTER.REPUL>
0

>  <SCORE.INTER.ROT>
4

>  <SCORE.INTER.VDW>
-21.1418

>  <SCORE.INTER.norm>
-0.923929

>  <SCORE.INTRA>
0.00556879

>  <SCORE.INTRA.DIHEDRAL>
0.829374

>  <SCORE.INTRA.DIHEDRAL.0>
1.50832

>  <SCORE.INTRA.POLAR>
0

>  <SCORE.INTRA.POLAR.0>
0

>  <SCORE.INTRA.REPUL>
0

>  <SCORE.INTRA.REPUL.0>
0

>  <SCORE.INTRA.VDW>
-0.409118

>  <SCORE.INTRA.VDW.0>
0.329867

>  <SCORE.INTRA.norm>
0.000348049

>  <SCORE.RESTR>
0

>  <SCORE.RESTR.CAVITY>
0

>  <SCORE.RESTR.norm>
0

>  <SCORE.SYSTEM>
-1.51364

>  <SCORE.SYSTEM.CONST>
0

>  <SCORE.SYSTEM.DIHEDRAL>
0.385602

>  <SCORE.SYSTEM.POLAR>
-0.50287

>  <SCORE.SYSTEM.VDW>
0.00331961

>  <SCORE.SYSTEM.norm>
-0.0946024

>  <SCORE.heavy>
16

>  <SCORE.norm>
-1.01818

>  <enum_code>
B

>  <enum_smi>
Clc1ccc(NCCC2=CCCCC2)nn1

>  <sha256>
6149034aeb29bd8fa0ec2e92d34f1bde0841ca524aca24497fa6898cc79b03a9

>  <std_smi>
Clc1ccc(NCCC2=CCCCC2)nn1

>  <uuid>
f19d88ba-908e-447f-9168-40c86eb61157

$$$$
f19d88ba-908e-447f-9168-40c86eb61157
  rDOCK(R)          3D
libRbt.so/2013.1/901 2013/11/27
 17 18  0  0  0  0  0  0  0  0999 V2000
    0.1273   23.1786    4.5910 Cl  0  0  0  0  0  0
   -0.4189   24.7877    4.7866 C   0  0  0  0  0  0
   -0.9393   25.2366    5.9796 C   0  0  0  0  0  0
   -1.3612   26.5629    6.0468 C   0  0  0  0  0  0
   -1.2528   27.3827    4.9273 C   0  0  0  0  0  0
   -1.6648   28.7229    5.0478 N   0  0  0  0  0  0
   -3.0056   29.0259    4.5313 C   0  0  0  0  0  0
   -3.2961   30.5357    4.5695 C   0  0  0  0  0  0
   -2.3864   31.4436    3.7566 C   0  0  0  0  0  0
   -1.5743   32.3881    4.2695 C   0  0  0  0  0  0
   -0.6603   33.2492    3.4434 C   0  0  0  0  0  0
   -0.4869   32.7493    2.0108 C   0  0  0  0  0  0
   -1.8228   32.3173    1.4221 C   0  0  0  0  0  0
   -2.4615   31.2080    2.2607 C   0  0  0  0  0  0
   -0.7224   26.8888    3.7879 N   0  0  0  0  0  0
   -0.3067   25.5783    3.7065 N   0  0  0  0  0  0
   -1.5711   29.0061    6.0198 H   0  0  0  0  0  0
  1  2  1  0  0  0
  2  3  2  0  0  0
  3  4  1  0  0  0
  4  5  2  0  0  0
  5  6  1  0  0  0
  6  7  1  0  0  0
  7  8  1  0  0  0
  8  9  1  0  0  0
  9 10  2  0  0  0
 10 11  1  0  0  0
 11 12  1  0  0  0
 12 13  1  0  0  0
 13 14  1  0  0  0
  5 15  1  0  0  0
 15 16  2  0  0  0
 16  2  1  0  0  0
 14  9  1  0  0  0
  6 17  1  0  0  0
M  END
>  <CHROM.0>
-59.88758699,68.10753898

>  <CHROM.1>
-99.38673459,-173.75815840,60.77168614,-116.07234813,-1.25591851,28.35457306
4.09821242,-1.29310771,0.90027275,-0.44759566

>  <Name>
f19d88ba-908e-447f-9168-40c86eb61157

>  <RI>
4.05763e+07

>  <Rbt.Current_Directory>
/data/work/jku/5V6S/work/40/8dba899c20c42488f2b1a17844994e

>  <Rbt.Executable>
rbdock ($Id: //depot/dev/client3/rdock/2013.1/src/exe/rbdock.cxx#4 $)

>  <Rbt.Library>
libRbt.so (2013.1, Build901 2013/11/27)

>  <Rbt.Parameter_File>
/rDock_2013.1_src/data/scripts/dock.prm

>  <Rbt.Receptor>
docking.prm

>  <SCORE>
-11.6533

>  <SCORE.INTER>
-8.73335

>  <SCORE.INTER.CONST>
1

>  <SCORE.INTER.POLAR>
0

>  <SCORE.INTER.REPUL>
0

>  <SCORE.INTER.ROT>
4

>  <SCORE.INTER.VDW>
-18.1334

>  <SCORE.INTER.norm>
-0.545835

>  <SCORE.INTRA>
-1.40938

>  <SCORE.INTRA.DIHEDRAL>
-0.988625

>  <SCORE.INTRA.DIHEDRAL.0>
1.50832

>  <SCORE.INTRA.POLAR>
0

>  <SCORE.INTRA.POLAR.0>
0

>  <SCORE.INTRA.REPUL>
0

>  <SCORE.INTRA.REPUL.0>
0

>  <SCORE.INTRA.VDW>
-0.915065

>  <SCORE.INTRA.VDW.0>
0.329867

>  <SCORE.INTRA.norm>
-0.0880861

>  <SCORE.RESTR>
0

>  <SCORE.RESTR.CAVITY>
0

>  <SCORE.RESTR.norm>
0

>  <SCORE.SYSTEM>
-1.5106

>  <SCORE.SYSTEM.CONST>
0

>  <SCORE.SYSTEM.DIHEDRAL>
0.327165

>  <SCORE.SYSTEM.POLAR>
-0.502116

>  <SCORE.SYSTEM.VDW>
0.0330087

>  <SCORE.SYSTEM.norm>
-0.0944127

>  <SCORE.heavy>
16

>  <SCORE.norm>
-0.728333

>  <enum_code>
B

>  <enum_smi>
Clc1ccc(NCCC2=CCCCC2)nn1

>  <sha256>
6149034aeb29bd8fa0ec2e92d34f1bde0841ca524aca24497fa6898cc79b03a9

>  <std_smi>
Clc1ccc(NCCC2=CCCCC2)nn1

>  <uuid>
f19d88ba-908e-447f-9168-40c86eb61157

$$$$
f32c4739-fd8a-4756-b06d-401189e33689
  rDOCK(R)          3D
libRbt.so/2013.1/901 2013/11/27
 17 18  0  0  0  0  0  0  0  0999 V2000
   -2.8786   23.4138    5.3350 Cl  0  0  0  0  0  0
   -2.4881   25.0724    5.0576 C   0  0  0  0  0  0
   -3.2113   26.1228    5.8235 C   0  0  0  0  0  0
   -2.9084   27.4085    5.6081 C   0  0  0  0  0  0
   -1.8490   27.6977    4.5974 C   0  0  0  0  0  0
   -1.4343   28.8757    4.2661 N   0  0  0  0  0  0
   -2.0125   30.0615    4.8970 C   0  0  0  0  0  0
   -2.6372   30.9384    3.8054 C   0  0  0  0  0  0
   -1.6262   31.4124    2.7842 C   0  0  0  0  0  0
   -1.0419   32.6214    2.8794 C   0  0  0  0  0  0
   -0.0797   33.1672    1.8648 C   0  0  0  0  0  0
   -0.0767   32.3804    0.5543 C   0  0  0  0  0  0
   -0.1039   30.8792    0.8160 C   0  0  0  0  0  0
   -1.3371   30.4794    1.6310 C   0  0  0  0  0  0
   -1.2674   26.6181    3.9683 N   0  0  0  0  0  0
   -1.5633   25.2994    4.1744 N   0  0  0  0  0  0
   -0.5504   26.8500    3.2846 H   0  0  0  0  0  0
  1  2  1  0  0  0
  2  3  1  0  0  0
  3  4  2  0  0  0
  4  5  1  0  0  0
  5  6  2  0  0  0
  6  7  1  0  0  0
  7  8  1  0  0  0
  8  9  1  0  0  0
  9 10  2  0  0  0
 10 11  1  0  0  0
 11 12  1  0  0  0
 12 13  1  0  0  0
 13 14  1  0  0  0
  5 15  1  0  0  0
 15 16  1  0  0  0
 16  2  2  0  0  0
 14  9  1  0  0  0
 15 17  1  0  0  0
M  END
>  <CHROM.0>
-59.88758699,69.21481105

>  <CHROM.1>
-120.29570554,-60.95103576,-96.11190652,-1.74498935,28.42388023,3.75339357
-2.02200295,1.02494680,-0.02668838

>  <Name>
f32c4739-fd8a-4756-b06d-401189e33689

>  <RI>
1.04461e+07

>  <Rbt.Current_Directory>
/data/work/jku/5V6S/work/40/8dba899c20c42488f2b1a17844994e

>  <Rbt.Executable>
rbdock ($Id: //depot/dev/client3/rdock/2013.1/src/exe/rbdock.cxx#4 $)

>  <Rbt.Library>
libRbt.so (2013.1, Build901 2013/11/27)

>  <Rbt.Parameter_File>
/rDock_2013.1_src/data/scripts/dock.prm

>  <Rbt.Receptor>
docking.prm

>  <SCORE>
-13.2918

>  <SCORE.INTER>
-10.4207

>  <SCORE.INTER.CONST>
1

>  <SCORE.INTER.POLAR>
0

>  <SCORE.INTER.REPUL>
0

>  <SCORE.INTER.ROT>
3

>  <SCORE.INTER.VDW>
-18.8207

>  <SCORE.INTER.norm>
-0.651292

>  <SCORE.INTRA>
-1.35787

>  <SCORE.INTRA.DIHEDRAL>
-1.92867

>  <SCORE.INTRA.DIHEDRAL.0>
2.91603

>  <SCORE.INTRA.POLAR>
0

>  <SCORE.INTRA.POLAR.0>
0

>  <SCORE.INTRA.REPUL>
0

>  <SCORE.INTRA.REPUL.0>
0

>  <SCORE.INTRA.VDW>
-0.393532

>  <SCORE.INTRA.VDW.0>
-0.472398

>  <SCORE.INTRA.norm>
-0.0848668

>  <SCORE.RESTR>
0

>  <SCORE.RESTR.CAVITY>
0

>  <SCORE.RESTR.norm>
0

>  <SCORE.SYSTEM>
-1.51323

>  <SCORE.SYSTEM.CONST>
0

>  <SCORE.SYSTEM.DIHEDRAL>
0.418593

>  <SCORE.SYSTEM.POLAR>
-0.503099

>  <SCORE.SYSTEM.VDW>
-0.0119913

>  <SCORE.SYSTEM.norm>
-0.0945769

>  <SCORE.heavy>
16

>  <SCORE.norm>
-0.830736

>  <enum_code>
T

>  <enum_smi>
Clc1ccc(=NCCC2=CCCCC2)[nH]n1

>  <sha256>
6149034aeb29bd8fa0ec2e92d34f1bde0841ca524aca24497fa6898cc79b03a9

>  <std_smi>
Clc1ccc(NCCC2=CCCCC2)nn1

>  <uuid>
f32c4739-fd8a-4756-b06d-401189e33689

$$$$
f32c4739-fd8a-4756-b06d-401189e33689
  rDOCK(R)          3D
libRbt.so/2013.1/901 2013/11/27
 17 18  0  0  0  0  0  0  0  0999 V2000
    0.2986   32.9402    0.3137 Cl  0  0  0  0  0  0
   -0.3473   31.7156    1.3450 C   0  0  0  0  0  0
   -0.3480   30.3035    0.8774 C   0  0  0  0  0  0
   -0.8489   29.3545    1.6773 C   0  0  0  0  0  0
   -1.3792   29.7916    3.0020 C   0  0  0  0  0  0
   -1.8966   29.0124    3.8934 N   0  0  0  0  0  0
   -1.9998   27.5757    3.6413 C   0  0  0  0  0  0
   -1.2587   26.8307    4.7578 C   0  0  0  0  0  0
   -1.2215   25.3338    4.5393 C   0  0  0  0  0  0
   -0.0845   24.6995    4.1974 C   0  0  0  0  0  0
   -0.0019   23.2286    3.9094 C   0  0  0  0  0  0
   -1.3701   22.5766    3.7111 C   0  0  0  0  0  0
   -2.3694   23.0725    4.7495 C   0  0  0  0  0  0
   -2.5313   24.5937    4.6828 C   0  0  0  0  0  0
   -1.3095   31.1364    3.2956 N   0  0  0  0  0  0
   -0.8023   32.1196    2.4925 N   0  0  0  0  0  0
   -1.6805   31.4008    4.2054 H   0  0  0  0  0  0
  1  2  1  0  0  0
  2  3  1  0  0  0
  3  4  2  0  0  0
  4  5  1  0  0  0
  5  6  2  0  0  0
  6  7  1  0  0  0
  7  8  1  0  0  0
  8  9  1  0  0  0
  9 10  2  0  0  0
 10 11  1  0  0  0
 11 12  1  0  0  0
 12 13  1  0  0  0
 13 14  1  0  0  0
  5 15  1  0  0  0
 15 16  1  0  0  0
 16  2  2  0  0  0
 14  9  1  0  0  0
 15 17  1  0  0  0
M  END
>  <CHROM.0>
-59.88758699,68.39070427

>  <CHROM.1>
122.64352353,-175.96358043,108.51750247,-0.98025351,28.21414299,2.95550014
-1.36920933,-0.88975426,2.93478174

>  <Name>
f32c4739-fd8a-4756-b06d-401189e33689

>  <RI>
1.04461e+07

>  <Rbt.Current_Directory>
/data/work/jku/5V6S/work/40/8dba899c20c42488f2b1a17844994e

>  <Rbt.Executable>
rbdock ($Id: //depot/dev/client3/rdock/2013.1/src/exe/rbdock.cxx#4 $)

>  <Rbt.Library>
libRbt.so (2013.1, Build901 2013/11/27)

>  <Rbt.Parameter_File>
/rDock_2013.1_src/data/scripts/dock.prm

>  <Rbt.Receptor>
docking.prm

>  <SCORE>
-14.4092

>  <SCORE.INTER>
-11.6022

>  <SCORE.INTER.CONST>
1

>  <SCORE.INTER.POLAR>
0

>  <SCORE.INTER.REPUL>
0

>  <SCORE.INTER.ROT>
3

>  <SCORE.INTER.VDW>
-20.0022

>  <SCORE.INTER.norm>
-0.725138

>  <SCORE.INTRA>
-1.29464

>  <SCORE.INTRA.DIHEDRAL>
-2.64057

>  <SCORE.INTRA.DIHEDRAL.0>
2.91603

>  <SCORE.INTRA.POLAR>
0

>  <SCORE.INTRA.POLAR.0>
0

>  <SCORE.INTRA.REPUL>
0

>  <SCORE.INTRA.REPUL.0>
0

>  <SCORE.INTRA.VDW>
0.0256393

>  <SCORE.INTRA.VDW.0>
-0.472398

>  <SCORE.INTRA.norm>
-0.0809152

>  <SCORE.RESTR>
0

>  <SCORE.RESTR.CAVITY>
0

>  <SCORE.RESTR.norm>
0

>  <SCORE.SYSTEM>
-1.51239

>  <SCORE.SYSTEM.CONST>
0

>  <SCORE.SYSTEM.DIHEDRAL>
0.349508

>  <SCORE.SYSTEM.POLAR>
-0.502463

>  <SCORE.SYSTEM.VDW>
0.0212299

>  <SCORE.SYSTEM.norm>
-0.0945243

>  <SCORE.heavy>
16

>  <SCORE.norm>
-0.900577

>  <enum_code>
T

>  <enum_smi>
Clc1ccc(=NCCC2=CCCCC2)[nH]n1

>  <sha256>
6149034aeb29bd8fa0ec2e92d34f1bde0841ca524aca24497fa6898cc79b03a9

>  <std_smi>
Clc1ccc(NCCC2=CCCCC2)nn1

>  <uuid>
f32c4739-fd8a-4756-b06d-401189e33689

$$$$
f32c4739-fd8a-4756-b06d-401189e33689
  rDOCK(R)          3D
libRbt.so/2013.1/901 2013/11/27
 17 18  0  0  0  0  0  0  0  0999 V2000
   -2.5203   23.9144    5.9514 Cl  0  0  0  0  0  0
   -2.7218   25.6277    5.8847 C   0  0  0  0  0  0
   -1.5392   26.5033    6.1026 C   0  0  0  0  0  0
   -1.6958   27.8315    6.0509 C   0  0  0  0  0  0
   -3.0697   28.3441    5.7738 C   0  0  0  0  0  0
   -3.3990   29.5907    5.6901 N   0  0  0  0  0  0
   -2.3877   30.6308    5.8738 C   0  0  0  0  0  0
   -2.7359   31.8149    4.9642 C   0  0  0  0  0  0
   -1.8972   31.8535    3.7052 C   0  0  0  0  0  0
   -1.0832   32.8902    3.4322 C   0  0  0  0  0  0
   -0.2758   33.0101    2.1724 C   0  0  0  0  0  0
   -0.7087   32.0273    1.0847 C   0  0  0  0  0  0
   -0.9691   30.6437    1.6680 C   0  0  0  0  0  0
   -2.0506   30.6917    2.7510 C   0  0  0  0  0  0
   -4.0660   27.4092    5.5924 N   0  0  0  0  0  0
   -3.9257   26.0502    5.6417 N   0  0  0  0  0  0
   -4.9903   27.7918    5.4067 H   0  0  0  0  0  0
  1  2  1  0  0  0
  2  3  1  0  0  0
  3  4  2  0  0  0
  4  5  1  0  0  0
  5  6  2  0  0  0
  6  7  1  0  0  0
  7  8  1  0  0  0
  8  9  1  0  0  0
  9 10  2  0  0  0
 10 11  1  0  0  0
 11 12  1  0  0  0
 12 13  1  0  0  0
 13 14  1  0  0  0
  5 15  1  0  0  0
 15 16  1  0  0  0
 16  2  2  0  0  0
 14  9  1  0  0  0
 15 17  1  0  0  0
M  END
>  <CHROM.0>
-59.88758699,68.69485766

>  <CHROM.1>
146.25915328,-101.47149468,-118.51594734,-2.23164541,28.83104147,4.62973067
-1.95038866,0.99707484,-0.11548226

>  <Name>
f32c4739-fd8a-4756-b06d-401189e33689

>  <RI>
1.04461e+07

>  <Rbt.Current_Directory>
/data/work/jku/5V6S/work/40/8dba899c20c42488f2b1a17844994e

>  <Rbt.Executable>
rbdock ($Id: //depot/dev/client3/rdock/2013.1/src/exe/rbdock.cxx#4 $)

>  <Rbt.Library>
libRbt.so (2013.1, Build901 2013/11/27)

>  <Rbt.Parameter_File>
/rDock_2013.1_src/data/scripts/dock.prm

>  <Rbt.Receptor>
docking.prm

>  <SCORE>
-11.0493

>  <SCORE.INTER>
-10.5376

>  <SCORE.INTER.CONST>
1

>  <SCORE.INTER.POLAR>
0

>  <SCORE.INTER.REPUL>
0

>  <SCORE.INTER.ROT>
3

>  <SCORE.INTER.VDW>
-18.9376

>  <SCORE.INTER.norm>
-0.658599

>  <SCORE.INTRA>
1.00178

>  <SCORE.INTRA.DIHEDRAL>
2.38229

>  <SCORE.INTRA.DIHEDRAL.0>
2.91603

>  <SCORE.INTRA.POLAR>
0

>  <SCORE.INTRA.POLAR.0>
0

>  <SCORE.INTRA.REPUL>
0

>  <SCORE.INTRA.REPUL.0>
0

>  <SCORE.INTRA.VDW>
-0.189368

>  <SCORE.INTRA.VDW.0>
-0.472398

>  <SCORE.INTRA.norm>
0.062611

>  <SCORE.RESTR>
0

>  <SCORE.RESTR.CAVITY>
0

>  <SCORE.RESTR.norm>
0

>  <SCORE.SYSTEM>
-1.51345

>  <SCORE.SYSTEM.CONST>
0

>  <SCORE.SYSTEM.DIHEDRAL>
0.374306

>  <SCORE.SYSTEM.POLAR>
-0.502762

>  <SCORE.SYSTEM.VDW>
0.00878681

>  <SCORE.SYSTEM.norm>
-0.0945906

>  <SCORE.heavy>
16

>  <SCORE.norm>
-0.690579

>  <enum_code>
T

>  <enum_smi>
Clc1ccc(=NCCC2=CCCCC2)[nH]n1

>  <sha256>
6149034aeb29bd8fa0ec2e92d34f1bde0841ca524aca24497fa6898cc79b03a9

>  <std_smi>
Clc1ccc(NCCC2=CCCCC2)nn1

>  <uuid>
f32c4739-fd8a-4756-b06d-401189e33689

$$$$
f32c4739-fd8a-4756-b06d-401189e33689
  rDOCK(R)          3D
libRbt.so/2013.1/901 2013/11/27
 17 18  0  0  0  0  0  0  0  0999 V2000
    0.1762   32.6020    0.3251 Cl  0  0  0  0  0  0
   -0.3828   31.2041    1.1699 C   0  0  0  0  0  0
   -1.1920   31.3819    2.4053 C   0  0  0  0  0  0
   -1.6250   30.2979    3.0600 C   0  0  0  0  0  0
   -1.2569   28.9679    2.4919 C   0  0  0  0  0  0
   -1.5887   27.8240    2.9928 N   0  0  0  0  0  0
   -2.3882   27.7624    4.2156 C   0  0  0  0  0  0
   -1.5858   27.0121    5.2851 C   0  0  0  0  0  0
   -1.2979   25.5767    4.9025 C   0  0  0  0  0  0
   -0.0563   25.1686    4.5801 C   0  0  0  0  0  0
    0.2763   23.7741    4.1351 C   0  0  0  0  0  0
   -0.9565   22.9525    3.7591 C   0  0  0  0  0  0
   -2.0814   23.1594    4.7663 C   0  0  0  0  0  0
   -2.4793   24.6352    4.8596 C   0  0  0  0  0  0
   -0.5021   28.9628    1.3387 N   0  0  0  0  0  0
   -0.0507   30.0582    0.6565 N   0  0  0  0  0  0
   -0.2676   28.0405    0.9787 H   0  0  0  0  0  0
  1  2  1  0  0  0
  2  3  1  0  0  0
  3  4  2  0  0  0
  4  5  1  0  0  0
  5  6  2  0  0  0
  6  7  1  0  0  0
  7  8  1  0  0  0
  8  9  1  0  0  0
  9 10  2  0  0  0
 10 11  1  0  0  0
 11 12  1  0  0  0
 12 13  1  0  0  0
 13 14  1  0  0  0
  5 15  1  0  0  0
 15 16  1  0  0  0
 16  2  2  0  0  0
 14  9  1  0  0  0
 15 17  1  0  0  0
M  END
>  <CHROM.0>
-59.88758699,69.00337330

>  <CHROM.1>
-119.98103172,-62.87026392,109.42682183,-0.95049539,27.99481597,2.92361677
-1.38805048,-0.83298221,2.82299979

>  <Name>
f32c4739-fd8a-4756-b06d-401189e33689

>  <RI>
1.04461e+07

>  <Rbt.Current_Directory>
/data/work/jku/5V6S/work/40/8dba899c20c42488f2b1a17844994e

>  <Rbt.Executable>
rbdock ($Id: //depot/dev/client3/rdock/2013.1/src/exe/rbdock.cxx#4 $)

>  <Rbt.Library>
libRbt.so (2013.1, Build901 2013/11/27)

>  <Rbt.Parameter_File>
/rDock_2013.1_src/data/scripts/dock.prm

>  <Rbt.Receptor>
docking.prm

>  <SCORE>
-14.696

>  <SCORE.INTER>
-11.6028

>  <SCORE.INTER.CONST>
1

>  <SCORE.INTER.POLAR>
0

>  <SCORE.INTER.REPUL>
0.000189611

>  <SCORE.INTER.ROT>
3

>  <SCORE.INTER.VDW>
-20.0037

>  <SCORE.INTER.norm>
-0.725173

>  <SCORE.INTRA>
-1.5796

>  <SCORE.INTRA.DIHEDRAL>
-2.71471

>  <SCORE.INTRA.DIHEDRAL.0>
2.91603

>  <SCORE.INTRA.POLAR>
0

>  <SCORE.INTRA.POLAR.0>
0

>  <SCORE.INTRA.REPUL>
0

>  <SCORE.INTRA.REPUL.0>
0

>  <SCORE.INTRA.VDW>
-0.222249

>  <SCORE.INTRA.VDW.0>
-0.472398

>  <SCORE.INTRA.norm>
-0.0987253

>  <SCORE.RESTR>
0

>  <SCORE.RESTR.CAVITY>
0

>  <SCORE.RESTR.norm>
0

>  <SCORE.SYSTEM>
-1.51363

>  <SCORE.SYSTEM.CONST>
0

>  <SCORE.SYSTEM.DIHEDRAL>
0.400297

>  <SCORE.SYSTEM.POLAR>
-0.502988

>  <SCORE.SYSTEM.VDW>
-0.00361647

>  <SCORE.SYSTEM.norm>
-0.0946017

>  <SCORE.heavy>
16

>  <SCORE.norm>
-0.9185

>  <enum_code>
T

>  <enum_smi>
Clc1ccc(=NCCC2=CCCCC2)[nH]n1

>  <sha256>
6149034aeb29bd8fa0ec2e92d34f1bde0841ca524aca24497fa6898cc79b03a9

>  <std_smi>
Clc1ccc(NCCC2=CCCCC2)nn1

>  <uuid>
f32c4739-fd8a-4756-b06d-401189e33689

$$$$
f32c4739-fd8a-4756-b06d-401189e33689
  rDOCK(R)          3D
libRbt.so/2013.1/901 2013/11/27
 17 18  0  0  0  0  0  0  0  0999 V2000
    0.0897   22.1587    3.9957 Cl  0  0  0  0  0  0
   -0.5629   23.7569    4.0149 C   0  0  0  0  0  0
    0.3371   24.9082    3.7371 C   0  0  0  0  0  0
   -0.1692   26.1471    3.7522 C   0  0  0  0  0  0
   -1.6247   26.2835    4.0522 C   0  0  0  0  0  0
   -2.2746   27.3989    4.1077 N   0  0  0  0  0  0
   -1.5823   28.6643    3.8675 C   0  0  0  0  0  0
   -2.1689   29.3087    2.6061 C   0  0  0  0  0  0
   -1.5066   30.6239    2.2575 C   0  0  0  0  0  0
   -0.6995   30.7447    1.1870 C   0  0  0  0  0  0
    0.0307   32.0063    0.8285 C   0  0  0  0  0  0
    0.0452   33.0349    1.9591 C   0  0  0  0  0  0
   -1.3209   33.1348    2.6271 C   0  0  0  0  0  0
   -1.7627   31.7824    3.1935 C   0  0  0  0  0  0
   -2.3304   25.1234    4.2884 N   0  0  0  0  0  0
   -1.8314   23.8507    4.2777 N   0  0  0  0  0  0
   -3.3192   25.2517    4.4909 H   0  0  0  0  0  0
  1  2  1  0  0  0
  2  3  1  0  0  0
  3  4  2  0  0  0
  4  5  1  0  0  0
  5  6  2  0  0  0
  6  7  1  0  0  0
  7  8  1  0  0  0
  8  9  1  0  0  0
  9 10  2  0  0  0
 10 11  1  0  0  0
 11 12  1  0  0  0
 12 13  1  0  0  0
 13 14  1  0  0  0
  5 15  1  0  0  0
 15 16  1  0  0  0
 16  2  2  0  0  0
 14  9  1  0  0  0
 15 17  1  0  0  0
M  END
>  <CHROM.0>
-59.88758699,68.22331845

>  <CHROM.1>
116.07656143,-179.32613248,109.31164726,-0.99446703,27.55487383,3.24828777
-1.52277869,0.51848661,-0.24911005

>  <Name>
f32c4739-fd8a-4756-b06d-401189e33689

>  <RI>
1.04461e+07

>  <Rbt.Current_Directory>
/data/work/jku/5V6S/work/40/8dba899c20c42488f2b1a17844994e

>  <Rbt.Executable>
rbdock ($Id: //depot/dev/client3/rdock/2013.1/src/exe/rbdock.cxx#4 $)

>  <Rbt.Library>
libRbt.so (2013.1, Build901 2013/11/27)

>  <Rbt.Parameter_File>
/rDock_2013.1_src/data/scripts/dock.prm

>  <Rbt.Receptor>
docking.prm

>  <SCORE>
-13.3215

>  <SCORE.INTER>
-10.4875

>  <SCORE.INTER.CONST>
1

>  <SCORE.INTER.POLAR>
0

>  <SCORE.INTER.REPUL>
0

>  <SCORE.INTER.ROT>
3

>  <SCORE.INTER.VDW>
-18.8875

>  <SCORE.INTER.norm>
-0.655468

>  <SCORE.INTRA>
-1.32263

>  <SCORE.INTRA.DIHEDRAL>
-2.71492

>  <SCORE.INTRA.DIHEDRAL.0>
2.91603

>  <SCORE.INTRA.POLAR>
0

>  <SCORE.INTRA.POLAR.0>
0

>  <SCORE.INTRA.REPUL>
0

>  <SCORE.INTRA.REPUL.0>
0

>  <SCORE.INTRA.VDW>
0.0348314

>  <SCORE.INTRA.VDW.0>
-0.472398

>  <SCORE.INTRA.norm>
-0.0826642

>  <SCORE.RESTR>
0

>  <SCORE.RESTR.CAVITY>
0

>  <SCORE.RESTR.norm>
0

>  <SCORE.SYSTEM>
-1.51143

>  <SCORE.SYSTEM.CONST>
0

>  <SCORE.SYSTEM.DIHEDRAL>
0.336213

>  <SCORE.SYSTEM.POLAR>
-0.502266

>  <SCORE.SYSTEM.VDW>
0.0281699

>  <SCORE.SYSTEM.norm>
-0.0944642

>  <SCORE.heavy>
16

>  <SCORE.norm>
-0.832596

>  <enum_code>
T

>  <enum_smi>
Clc1ccc(=NCCC2=CCCCC2)[nH]n1

>  <sha256>
6149034aeb29bd8fa0ec2e92d34f1bde0841ca524aca24497fa6898cc79b03a9

>  <std_smi>
Clc1ccc(NCCC2=CCCCC2)nn1

>  <uuid>
f32c4739-fd8a-4756-b06d-401189e33689

$$$$
4a202479-ce3a-42c9-954f-3ba43be7a1b7
  rDOCK(R)          3D
libRbt.so/2013.1/901 2013/11/27
 18 19  0  0  0  0  0  0  0  0999 V2000
    0.7463   32.5743   -0.0090 Cl  0  0  0  0  0  0
   -0.3693   31.7775    1.0164 C   0  0  0  0  0  0
   -0.8294   32.3748    2.1775 C   0  0  0  0  0  0
   -1.7429   31.7004    2.9909 C   0  0  0  0  0  0
   -2.1951   30.4269    2.6644 C   0  0  0  0  0  0
   -3.1278   29.7502    3.4236 N   0  0  0  0  0  0
   -2.9122   28.3768    3.8852 C   0  0  0  0  0  0
   -1.7379   28.2879    4.8709 C   0  0  0  0  0  0
   -1.3012   26.8656    5.1343 C   0  0  0  0  0  0
   -1.5142   26.2678    6.3217 C   0  0  0  0  0  0
   -1.1087   24.8537    6.6316 C   0  0  0  0  0  0
   -0.7124   24.0526    5.3920 C   0  0  0  0  0  0
    0.1531   24.8870    4.4562 C   0  0  0  0  0  0
   -0.5806   26.1541    4.0095 C   0  0  0  0  0  0
   -1.7780   29.8191    1.5415 N   0  0  0  0  0  0
   -0.8031   30.5626    0.6842 N   0  3  0  0  0  0
   -4.0792   29.9213    3.1028 H   0  0  0  0  0  0
   -0.4590   30.1436   -0.1786 H   0  0  0  0  0  0
  1  2  1  0  0  0
  2  3  2  0  0  0
  3  4  1  0  0  0
  4  5  2  0  0  0
  5  6  1  0  0  0
  6  7  1  0  0  0
  7  8  1  0  0  0
  8  9  1  0  0  0
  9 10  2  0  0  0
 10 11  1  0  0  0
 11 12  1  0  0  0
 12 13  1  0  0  0
 13 14  1  0  0  0
  5 15  1  0  0  0
 15 16  2  0  0  0
 16  2  1  0  0  0
 14  9  1  0  0  0
  6 17  1  0  0  0
 16 18  1  0  0  0
M  END
>  <CHROM.0>
-59.88758699,68.90340258

>  <CHROM.1>
-129.08814755,64.99485199,-167.67090803,-109.91401358,-1.06593109,28.98809195
3.13079170,-1.45777900,-0.58238319,2.58735386

>  <Name>
4a202479-ce3a-42c9-954f-3ba43be7a1b7

>  <RI>
2.19722e+07

>  <Rbt.Current_Directory>
/data/work/jku/5V6S/work/40/8dba899c20c42488f2b1a17844994e

>  <Rbt.Executable>
rbdock ($Id: //depot/dev/client3/rdock/2013.1/src/exe/rbdock.cxx#4 $)

>  <Rbt.Library>
libRbt.so (2013.1, Build901 2013/11/27)

>  <Rbt.Parameter_File>
/rDock_2013.1_src/data/scripts/dock.prm

>  <Rbt.Receptor>
docking.prm

>  <SCORE>
-15.6904

>  <SCORE.INTER>
-14.107

>  <SCORE.INTER.CONST>
1

>  <SCORE.INTER.POLAR>
-1.40312

>  <SCORE.INTER.REPUL>
0

>  <SCORE.INTER.ROT>
4

>  <SCORE.INTER.VDW>
-18.7364

>  <SCORE.INTER.norm>
-0.881689

>  <SCORE.INTRA>
-0.0697129

>  <SCORE.INTRA.DIHEDRAL>
0.909345

>  <SCORE.INTRA.DIHEDRAL.0>
0.796297

>  <SCORE.INTRA.POLAR>
0

>  <SCORE.INTRA.POLAR.0>
0

>  <SCORE.INTRA.REPUL>
0

>  <SCORE.INTRA.REPUL.0>
0

>  <SCORE.INTRA.VDW>
-0.524386

>  <SCORE.INTRA.VDW.0>
-0.162118

>  <SCORE.INTRA.norm>
-0.00435706

>  <SCORE.RESTR>
0

>  <SCORE.RESTR.CAVITY>
0

>  <SCORE.RESTR.norm>
0

>  <SCORE.SYSTEM>
-1.51367

>  <SCORE.SYSTEM.CONST>
0

>  <SCORE.SYSTEM.DIHEDRAL>
0.391783

>  <SCORE.SYSTEM.POLAR>
-0.502923

>  <SCORE.SYSTEM.VDW>
0.000378741

>  <SCORE.SYSTEM.norm>
-0.0946043

>  <SCORE.heavy>
16

>  <SCORE.norm>
-0.98065

>  <enum_code>
M

>  <enum_smi>
Clc1ccc(NCCC2=CCCCC2)n[nH+]1

>  <sha256>
6149034aeb29bd8fa0ec2e92d34f1bde0841ca524aca24497fa6898cc79b03a9

>  <std_smi>
Clc1ccc(NCCC2=CCCCC2)nn1

>  <uuid>
4a202479-ce3a-42c9-954f-3ba43be7a1b7

$$$$
4a202479-ce3a-42c9-954f-3ba43be7a1b7
  rDOCK(R)          3D
libRbt.so/2013.1/901 2013/11/27
 18 19  0  0  0  0  0  0  0  0999 V2000
    0.6460   32.6600   -0.4291 Cl  0  0  0  0  0  0
   -0.2113   32.0226    0.9087 C   0  0  0  0  0  0
   -0.4906   32.8014    2.0188 C   0  0  0  0  0  0
   -1.1958   32.2531    3.0925 C   0  0  0  0  0  0
   -1.6167   30.9282    3.0769 C   0  0  0  0  0  0
   -2.3505   30.3675    4.1022 N   0  0  0  0  0  0
   -1.9173   29.1554    4.8015 C   0  0  0  0  0  0
   -2.0900   27.9045    3.9276 C   0  0  0  0  0  0
   -1.4956   26.6653    4.5553 C   0  0  0  0  0  0
   -0.4556   26.0179    3.9972 C   0  0  0  0  0  0
    0.1783   24.7881    4.5854 C   0  0  0  0  0  0
   -0.2567   24.5128    6.0244 C   0  0  0  0  0  0
   -1.7550   24.7315    6.1933 C   0  0  0  0  0  0
   -2.1480   26.1647    5.8260 C   0  0  0  0  0  0
   -1.3720   30.1445    2.0137 N   0  0  0  0  0  0
   -0.6189   30.7549    0.8742 N   0  3  0  0  0  0
   -3.3507   30.3849    3.9108 H   0  0  0  0  0  0
   -0.4108   30.2006    0.0447 H   0  0  0  0  0  0
  1  2  1  0  0  0
  2  3  2  0  0  0
  3  4  1  0  0  0
  4  5  2  0  0  0
  5  6  1  0  0  0
  6  7  1  0  0  0
  7  8  1  0  0  0
  8  9  1  0  0  0
  9 10  2  0  0  0
 10 11  1  0  0  0
 11 12  1  0  0  0
 12 13  1  0  0  0
 13 14  1  0  0  0
  5 15  1  0  0  0
 15 16  2  0  0  0
 16  2  1  0  0  0
 14  9  1  0  0  0
  6 17  1  0  0  0
 16 18  1  0  0  0
M  END
>  <CHROM.0>
-59.88758699,179.85397688

>  <CHROM.1>
-124.72868127,-73.06189575,172.93444825,-115.45108185,-0.92804640,29.17474041
3.13188405,-1.39128025,-0.82157088,2.67157843

>  <Name>
4a202479-ce3a-42c9-954f-3ba43be7a1b7

>  <RI>
2.19722e+07

>  <Rbt.Current_Directory>
/data/work/jku/5V6S/work/40/8dba899c20c42488f2b1a17844994e

>  <Rbt.Executable>
rbdock ($Id: //depot/dev/client3/rdock/2013.1/src/exe/rbdock.cxx#4 $)

>  <Rbt.Library>
libRbt.so (2013.1, Build901 2013/11/27)

>  <Rbt.Parameter_File>
/rDock_2013.1_src/data/scripts/dock.prm

>  <Rbt.Receptor>
docking.prm

>  <SCORE>
-16.6829

>  <SCORE.INTER>
-16.1644

>  <SCORE.INTER.CONST>
1

>  <SCORE.INTER.POLAR>
-1.40257

>  <SCORE.INTER.REPUL>
0

>  <SCORE.INTER.ROT>
4

>  <SCORE.INTER.VDW>
-20.7956

>  <SCORE.INTER.norm>
-1.01027

>  <SCORE.INTRA>
-0.246749

>  <SCORE.INTRA.DIHEDRAL>
0.106337

>  <SCORE.INTRA.DIHEDRAL.0>
0.796297

>  <SCORE.INTRA.POLAR>
0

>  <SCORE.INTRA.POLAR.0>
0

>  <SCORE.INTRA.REPUL>
0

>  <SCORE.INTRA.REPUL.0>
0

>  <SCORE.INTRA.VDW>
-0.299918

>  <SCORE.INTRA.VDW.0>
-0.162118

>  <SCORE.INTRA.norm>
-0.0154218

>  <SCORE.RESTR>
0

>  <SCORE.RESTR.CAVITY>
0

>  <SCORE.RESTR.norm>
0

>  <SCORE.SYSTEM>
-0.271772

>  <SCORE.SYSTEM.CONST>
0

>  <SCORE.SYSTEM.DIHEDRAL>
0.00773651

>  <SCORE.SYSTEM.VDW>
-0.27564

>  <SCORE.SYSTEM.norm>
-0.0169858

>  <SCORE.heavy>
16

>  <SCORE.norm>
-1.04268

>  <enum_code>
M

>  <enum_smi>
Clc1ccc(NCCC2=CCCCC2)n[nH+]1

>  <sha256>
6149034aeb29bd8fa0ec2e92d34f1bde0841ca524aca24497fa6898cc79b03a9

>  <std_smi>
Clc1ccc(NCCC2=CCCCC2)nn1

>  <uuid>
4a202479-ce3a-42c9-954f-3ba43be7a1b7

$$$$
4a202479-ce3a-42c9-954f-3ba43be7a1b7
  rDOCK(R)          3D
libRbt.so/2013.1/901 2013/11/27
 18 19  0  0  0  0  0  0  0  0999 V2000
    0.5864   32.6485   -0.6364 Cl  0  0  0  0  0  0
   -0.1824   32.1006    0.7917 C   0  0  0  0  0  0
   -0.3929   32.9503    1.8643 C   0  0  0  0  0  0
   -1.0270   32.4740    3.0140 C   0  0  0  0  0  0
   -1.4443   31.1515    3.1114 C   0  0  0  0  0  0
   -2.1099   30.6596    4.2156 N   0  0  0  0  0  0
   -3.5098   30.9886    4.4951 C   0  0  0  0  0  0
   -4.4718   30.0473    3.7556 C   0  0  0  0  0  0
   -4.3583   28.6133    4.2177 C   0  0  0  0  0  0
   -5.2938   28.0459    5.0021 C   0  0  0  0  0  0
   -5.2335   26.6221    5.4810 C   0  0  0  0  0  0
   -4.1826   25.7836    4.7543 C   0  0  0  0  0  0
   -2.8868   26.5651    4.5778 C   0  0  0  0  0  0
   -3.1232   27.8531    3.7848 C   0  0  0  0  0  0
   -1.2653   30.2999    2.0881 N   0  0  0  0  0  0
   -0.5878   30.8338    0.8657 N   0  3  0  0  0  0
   -1.5232   30.6609    5.0480 H   0  0  0  0  0  0
   -0.4311   30.2265    0.0625 H   0  0  0  0  0  0
  1  2  1  0  0  0
  2  3  2  0  0  0
  3  4  1  0  0  0
  4  5  2  0  0  0
  5  6  1  0  0  0
  6  7  1  0  0  0
  7  8  1  0  0  0
  8  9  1  0  0  0
  9 10  2  0  0  0
 10 11  1  0  0  0
 11 12  1  0  0  0
 12 13  1  0  0  0
 13 14  1  0  0  0
  5 15  1  0  0  0
 15 16  2  0  0  0
 16  2  1  0  0  0
 14  9  1  0  0  0
  6 17  1  0  0  0
 16 18  1  0  0  0
M  END
>  <CHROM.0>
-59.88758699,177.74548944

>  <CHROM.1>
73.55377197,85.50188596,64.45324758,105.48203662,-2.19617013,30.07206220
2.87249023,-0.55408588,-0.85976052,-2.97088425

>  <Name>
4a202479-ce3a-42c9-954f-3ba43be7a1b7

>  <RI>
2.19722e+07

>  <Rbt.Current_Directory>
/data/work/jku/5V6S/work/40/8dba899c20c42488f2b1a17844994e

>  <Rbt.Executable>
rbdock ($Id: //depot/dev/client3/rdock/2013.1/src/exe/rbdock.cxx#4 $)

>  <Rbt.Library>
libRbt.so (2013.1, Build901 2013/11/27)

>  <Rbt.Parameter_File>
/rDock_2013.1_src/data/scripts/dock.prm

>  <Rbt.Receptor>
docking.prm

>  <SCORE>
-14.16

>  <SCORE.INTER>
-13.5947

>  <SCORE.INTER.CONST>
1

>  <SCORE.INTER.POLAR>
-1.40145

>  <SCORE.INTER.REPUL>
0

>  <SCORE.INTER.ROT>
4

>  <SCORE.INTER.VDW>
-18.2298

>  <SCORE.INTER.norm>
-0.849669

>  <SCORE.INTRA>
-0.305313

>  <SCORE.INTRA.DIHEDRAL>
1.57527

>  <SCORE.INTRA.DIHEDRAL.0>
0.796297

>  <SCORE.INTRA.POLAR>
0

>  <SCORE.INTRA.POLAR.0>
0

>  <SCORE.INTRA.REPUL>
0

>  <SCORE.INTRA.REPUL.0>
0

>  <SCORE.INTRA.VDW>
-1.09295

>  <SCORE.INTRA.VDW.0>
-0.162118

>  <SCORE.INTRA.norm>
-0.019082

>  <SCORE.RESTR>
0

>  <SCORE.RESTR.CAVITY>
0

>  <SCORE.RESTR.norm>
0

>  <SCORE.SYSTEM>
-0.260033

>  <SCORE.SYSTEM.CONST>
0

>  <SCORE.SYSTEM.DIHEDRAL>
0.0326849

>  <SCORE.SYSTEM.VDW>
-0.276375

>  <SCORE.SYSTEM.norm>
-0.0162521

>  <SCORE.heavy>
16

>  <SCORE.norm>
-0.885003

>  <enum_code>
M

>  <enum_smi>
Clc1ccc(NCCC2=CCCCC2)n[nH+]1

>  <sha256>
6149034aeb29bd8fa0ec2e92d34f1bde0841ca524aca24497fa6898cc79b03a9

>  <std_smi>
Clc1ccc(NCCC2=CCCCC2)nn1

>  <uuid>
4a202479-ce3a-42c9-954f-3ba43be7a1b7

$$$$
4a202479-ce3a-42c9-954f-3ba43be7a1b7
  rDOCK(R)          3D
libRbt.so/2013.1/901 2013/11/27
 18 19  0  0  0  0  0  0  0  0999 V2000
   -1.9789   31.2416    1.0027 Cl  0  0  0  0  0  0
   -1.5362   29.7874    1.7901 C   0  0  0  0  0  0
   -2.0244   29.4751    3.0475 C   0  0  0  0  0  0
   -1.6477   28.2786    3.6617 C   0  0  0  0  0  0
   -0.7766   27.3920    3.0388 C   0  0  0  0  0  0
   -0.4169   26.1835    3.5994 N   0  0  0  0  0  0
   -0.3607   25.9799    5.0490 C   0  0  0  0  0  0
   -0.1364   24.5032    5.4057 C   0  0  0  0  0  0
   -1.1898   23.5927    4.8189 C   0  0  0  0  0  0
   -2.3966   23.4416    5.3963 C   0  0  0  0  0  0
   -3.4818   22.5570    4.8485 C   0  0  0  0  0  0
   -3.2127   22.0831    3.4207 C   0  0  0  0  0  0
   -1.7567   21.6691    3.2479 C   0  0  0  0  0  0
   -0.8116   22.8302    3.5674 C   0  0  0  0  0  0
   -0.2894   27.6565    1.8153 N   0  0  0  0  0  0
   -0.7103   28.9419    1.1757 N   0  3  0  0  0  0
    0.3572   25.7464    3.1022 H   0  0  0  0  0  0
   -0.3685   29.1859    0.2472 H   0  0  0  0  0  0
  1  2  1  0  0  0
  2  3  2  0  0  0
  3  4  1  0  0  0
  4  5  2  0  0  0
  5  6  1  0  0  0
  6  7  1  0  0  0
  7  8  1  0  0  0
  8  9  1  0  0  0
  9 10  2  0  0  0
 10 11  1  0  0  0
 11 12  1  0  0  0
 12 13  1  0  0  0
 13 14  1  0  0  0
  5 15  1  0  0  0
 15 16  2  0  0  0
 16  2  1  0  0  0
 14  9  1  0  0  0
  6 17  1  0  0  0
 16 18  1  0  0  0
M  END
>  <CHROM.0>
-59.88758699,-61.81972601

>  <CHROM.1>
-29.62957170,171.65360295,-56.71184215,-80.66846047,-1.45760602,26.42278322
3.19573028,1.51160866,-0.72652364,-0.40294871

>  <Name>
4a202479-ce3a-42c9-954f-3ba43be7a1b7

>  <RI>
2.19722e+07

>  <Rbt.Current_Directory>
/data/work/jku/5V6S/work/40/8dba899c20c42488f2b1a17844994e

>  <Rbt.Executable>
rbdock ($Id: //depot/dev/client3/rdock/2013.1/src/exe/rbdock.cxx#4 $)

>  <Rbt.Library>
libRbt.so (2013.1, Build901 2013/11/27)

>  <Rbt.Parameter_File>
/rDock_2013.1_src/data/scripts/dock.prm

>  <Rbt.Receptor>
docking.prm

>  <SCORE>
-12.9665

>  <SCORE.INTER>
-14.5726

>  <SCORE.INTER.CONST>
1

>  <SCORE.INTER.POLAR>
-1.39921

>  <SCORE.INTER.REPUL>
0

>  <SCORE.INTER.ROT>
4

>  <SCORE.INTER.VDW>
-19.2153

>  <SCORE.INTER.norm>
-0.910787

>  <SCORE.INTRA>
0.583691

>  <SCORE.INTRA.DIHEDRAL>
1.9238

>  <SCORE.INTRA.DIHEDRAL.0>
0.796297

>  <SCORE.INTRA.POLAR>
0

>  <SCORE.INTRA.POLAR.0>
0

>  <SCORE.INTRA.REPUL>
0

>  <SCORE.INTRA.REPUL.0>
0

>  <SCORE.INTRA.VDW>
-0.378211

>  <SCORE.INTRA.VDW.0>
-0.162118

>  <SCORE.INTRA.norm>
0.0364807

>  <SCORE.RESTR>
0

>  <SCORE.RESTR.CAVITY>
0

>  <SCORE.RESTR.norm>
0

>  <SCORE.SYSTEM>
1.02242

>  <SCORE.SYSTEM.CONST>
0

>  <SCORE.SYSTEM.DIHEDRAL>
0.02396

>  <SCORE.SYSTEM.REPUL>
0.135294

>  <SCORE.SYSTEM.VDW>
0.333974

>  <SCORE.SYSTEM.norm>
0.0639015

>  <SCORE.heavy>
16

>  <SCORE.norm>
-0.810405

>  <enum_code>
M

>  <enum_smi>
Clc1ccc(NCCC2=CCCCC2)n[nH+]1

>  <sha256>
6149034aeb29bd8fa0ec2e92d34f1bde0841ca524aca24497fa6898cc79b03a9

>  <std_smi>
Clc1ccc(NCCC2=CCCCC2)nn1

>  <uuid>
4a202479-ce3a-42c9-954f-3ba43be7a1b7

$$$$
4a202479-ce3a-42c9-954f-3ba43be7a1b7
  rDOCK(R)          3D
libRbt.so/2013.1/901 2013/11/27
 18 19  0  0  0  0  0  0  0  0999 V2000
   -0.6641   33.2037    3.1014 Cl  0  0  0  0  0  0
   -1.4958   31.8875    3.8134 C   0  0  0  0  0  0
   -1.5880   30.6648    3.1705 C   0  0  0  0  0  0
   -2.2699   29.6091    3.7798 C   0  0  0  0  0  0
   -2.8738   29.7630    5.0225 C   0  0  0  0  0  0
   -3.5192   28.7296    5.6703 N   0  0  0  0  0  0
   -3.1662   27.3255    5.4471 C   0  0  0  0  0  0
   -1.7409   27.0160    5.9278 C   0  0  0  0  0  0
   -1.1802   25.7510    5.3209 C   0  0  0  0  0  0
   -0.1031   25.7699    4.5135 C   0  0  0  0  0  0
    0.4995   24.5404    3.8926 C   0  0  0  0  0  0
   -0.0240   23.2386    4.4981 C   0  0  0  0  0  0
   -1.5312   23.3026    4.7111 C   0  0  0  0  0  0
   -1.9087   24.4624    5.6363 C   0  0  0  0  0  0
   -2.7980   30.9316    5.6806 N   0  0  0  0  0  0
   -2.0589   32.0463    5.0102 N   0  3  0  0  0  0
   -4.5236   28.8859    5.7341 H   0  0  0  0  0  0
   -1.9729   32.9513    5.4707 H   0  0  0  0  0  0
  1  2  1  0  0  0
  2  3  2  0  0  0
  3  4  1  0  0  0
  4  5  2  0  0  0
  5  6  1  0  0  0
  6  7  1  0  0  0
  7  8  1  0  0  0
  8  9  1  0  0  0
  9 10  2  0  0  0
 10 11  1  0  0  0
 11 12  1  0  0  0
 12 13  1  0  0  0
 13 14  1  0  0  0
  5 15  1  0  0  0
 15 16  2  0  0  0
 16  2  1  0  0  0
 14  9  1  0  0  0
  6 17  1  0  0  0
 16 18  1  0  0  0
M  END
>  <CHROM.0>
-59.88758699,68.08401858

>  <CHROM.1>
26.86165983,64.91764468,-160.99482842,116.36991998,-1.57516852,28.46787422
4.57439286,-1.65873039,-0.62783999,2.96126565

>  <Name>
4a202479-ce3a-42c9-954f-3ba43be7a1b7

>  <RI>
2.19722e+07

>  <Rbt.Current_Directory>
/data/work/jku/5V6S/work/40/8dba899c20c42488f2b1a17844994e

>  <Rbt.Executable>
rbdock ($Id: //depot/dev/client3/rdock/2013.1/src/exe/rbdock.cxx#4 $)

>  <Rbt.Library>
libRbt.so (2013.1, Build901 2013/11/27)

>  <Rbt.Parameter_File>
/rDock_2013.1_src/data/scripts/dock.prm

>  <Rbt.Receptor>
docking.prm

>  <SCORE>
-14.709

>  <SCORE.INTER>
-14.1283

>  <SCORE.INTER.CONST>
1

>  <SCORE.INTER.POLAR>
-1.34164

>  <SCORE.INTER.REPUL>
0

>  <SCORE.INTER.ROT>
4

>  <SCORE.INTER.VDW>
-18.9668

>  <SCORE.INTER.norm>
-0.883022

>  <SCORE.INTRA>
0.929808

>  <SCORE.INTRA.DIHEDRAL>
1.36057

>  <SCORE.INTRA.DIHEDRAL.0>
0.796297

>  <SCORE.INTRA.POLAR>
0

>  <SCORE.INTRA.POLAR.0>
0

>  <SCORE.INTRA.REPUL>
0

>  <SCORE.INTRA.REPUL.0>
0

>  <SCORE.INTRA.VDW>
0.249524

>  <SCORE.INTRA.VDW.0>
-0.162118

>  <SCORE.INTRA.norm>
0.058113

>  <SCORE.RESTR>
0

>  <SCORE.RESTR.CAVITY>
0

>  <SCORE.RESTR.norm>
0

>  <SCORE.SYSTEM>
-1.51042

>  <SCORE.SYSTEM.CONST>
0

>  <SCORE.SYSTEM.DIHEDRAL>
0.325341

>  <SCORE.SYSTEM.POLAR>
-0.502084

>  <SCORE.SYSTEM.VDW>
0.0339956

>  <SCORE.SYSTEM.norm>
-0.0944013

>  <SCORE.heavy>
16

>  <SCORE.norm>
-0.91931

>  <enum_code>
M

>  <enum_smi>
Clc1ccc(NCCC2=CCCCC2)n[nH+]1

>  <sha256>
6149034aeb29bd8fa0ec2e92d34f1bde0841ca524aca24497fa6898cc79b03a9

>  <std_smi>
Clc1ccc(NCCC2=CCCCC2)nn1

>  <uuid>
4a202479-ce3a-42c9-954f-3ba43be7a1b7

$$$$
21a5a1d7-7769-4a29-a359-bab32a6af716
  rDOCK(R)          3D
libRbt.so/2013.1/901 2013/11/27
 18 19  0  0  0  0  0  0  0  0999 V2000
   -3.0762   22.1877    4.5207 Cl  0  0  0  0  0  0
   -3.9220   23.6559    4.7161 C   0  0  0  0  0  0
   -4.9806   24.0081    3.8999 C   0  0  0  0  0  0
   -5.6159   25.2310    4.1278 C   0  0  0  0  0  0
   -5.1442   26.0279    5.1564 C   0  0  0  0  0  0
   -5.7636   27.2884    5.4739 N   0  3  0  0  0  0
   -5.1160   28.4599    4.8152 C   0  0  0  0  0  0
   -3.6167   28.5483    5.1363 C   0  0  0  0  0  0
   -2.8343   29.6267    4.4107 C   0  0  0  0  0  0
   -2.0918   29.4112    3.3072 C   0  0  0  0  0  0
   -1.3299   30.4929    2.5868 C   0  0  0  0  0  0
   -1.7304   31.9030    3.0146 C   0  0  0  0  0  0
   -1.8634   31.9905    4.5286 C   0  0  0  0  0  0
   -2.9102   31.0030    5.0476 C   0  0  0  0  0  0
   -4.1230   25.6551    5.9417 N   0  0  0  0  0  0
   -3.4966   24.4550    5.7157 N   0  0  0  0  0  0
   -5.6557   27.3697    6.4963 H   0  0  0  0  0  0
   -6.7686   27.2296    5.2887 H   0  0  0  0  0  0
  1  2  1  0  0  0
  2  3  2  0  0  0
  3  4  1  0  0  0
  4  5  2  0  0  0
  5  6  1  0  0  0
  6  7  1  0  0  0
  7  8  1  0  0  0
  8  9  1  0  0  0
  9 10  2  0  0  0
 10 11  1  0  0  0
 11 12  1  0  0  0
 12 13  1  0  0  0
 13 14  1  0  0  0
  5 15  1  0  0  0
 15 16  2  0  0  0
 16  2  1  0  0  0
 14  9  1  0  0  0
  6 17  1  0  0  0
  6 18  1  0  0  0
M  END
>  <CHROM.0>
-59.88758699,68.73111006

>  <CHROM.1>
-94.53350842,-55.88156897,174.35897921,-98.35740568,-3.55843096,27.06191441
4.53930720,-1.81278720,0.45824785,-0.00075842

>  <Name>
21a5a1d7-7769-4a29-a359-bab32a6af716

>  <RI>
4.24154e+07

>  <Rbt.Current_Directory>
/data/work/jku/5V6S/work/40/8dba899c20c42488f2b1a17844994e

>  <Rbt.Executable>
rbdock ($Id: //depot/dev/client3/rdock/2013.1/src/exe/rbdock.cxx#4 $)

>  <Rbt.Library>
libRbt.so (2013.1, Build901 2013/11/27)

>  <Rbt.Parameter_File>
/rDock_2013.1_src/data/scripts/dock.prm

>  <Rbt.Receptor>
docking.prm

>  <SCORE>
-9.19574

>  <SCORE.INTER>
-7.60133

>  <SCORE.INTER.CONST>
1

>  <SCORE.INTER.POLAR>
0

>  <SCORE.INTER.REPUL>
0

>  <SCORE.INTER.ROT>
4

>  <SCORE.INTER.VDW>
-17.0013

>  <SCORE.INTER.norm>
-0.475083

>  <SCORE.INTRA>
-0.080894

>  <SCORE.INTRA.DIHEDRAL>
-1.45312

>  <SCORE.INTRA.DIHEDRAL.0>
3.09567

>  <SCORE.INTRA.POLAR>
0

>  <SCORE.INTRA.POLAR.0>
0

>  <SCORE.INTRA.REPUL>
0

>  <SCORE.INTRA.REPUL.0>
0

>  <SCORE.INTRA.VDW>
0.645668

>  <SCORE.INTRA.VDW.0>
-1.09116

>  <SCORE.INTRA.norm>
-0.00505587

>  <SCORE.RESTR>
0

>  <SCORE.RESTR.CAVITY>
0

>  <SCORE.RESTR.norm>
0

>  <SCORE.SYSTEM>
-1.51352

>  <SCORE.SYSTEM.CONST>
0

>  <SCORE.SYSTEM.DIHEDRAL>
0.377316

>  <SCORE.SYSTEM.POLAR>
-0.502792

>  <SCORE.SYSTEM.VDW>
0.007318

>  <SCORE.SYSTEM.norm>
-0.0945948

>  <SCORE.heavy>
16

>  <SCORE.norm>
-0.574734

>  <enum_code>
M

>  <enum_smi>
Clc1ccc([NH2+]CCC2=CCCCC2)nn1

>  <sha256>
6149034aeb29bd8fa0ec2e92d34f1bde0841ca524aca24497fa6898cc79b03a9

>  <std_smi>
Clc1ccc(NCCC2=CCCCC2)nn1

>  <uuid>
21a5a1d7-7769-4a29-a359-bab32a6af716

$$$$
21a5a1d7-7769-4a29-a359-bab32a6af716
  rDOCK(R)          3D
libRbt.so/2013.1/901 2013/11/27
 18 19  0  0  0  0  0  0  0  0999 V2000
   -2.8112   21.1992    2.2816 Cl  0  0  0  0  0  0
   -2.4047   22.2236    3.5833 C   0  0  0  0  0  0
   -3.3049   22.5281    4.5873 C   0  0  0  0  0  0
   -2.8899   23.3782    5.6150 C   0  0  0  0  0  0
   -1.5993   23.8759    5.5671 C   0  0  0  0  0  0
   -1.0867   24.7338    6.6036 N   0  3  0  0  0  0
   -1.5925   26.1354    6.5295 C   0  0  0  0  0  0
   -1.2941   26.7870    5.1712 C   0  0  0  0  0  0
   -1.6847   28.2455    5.0227 C   0  0  0  0  0  0
   -2.1426   29.0135    6.0307 C   0  0  0  0  0  0
   -2.5144   30.4650    5.8745 C   0  0  0  0  0  0
   -2.0216   31.0787    4.5659 C   0  0  0  0  0  0
   -2.2705   30.1334    3.3989 C   0  0  0  0  0  0
   -1.5605   28.7953    3.6128 C   0  0  0  0  0  0
   -0.7424   23.5532    4.5873 N   0  0  0  0  0  0
   -1.1510   22.7204    3.5757 N   0  0  0  0  0  0
   -0.0671   24.7310    6.4493 H   0  0  0  0  0  0
   -1.2467   24.2979    7.5158 H   0  0  0  0  0  0
  1  2  1  0  0  0
  2  3  2  0  0  0
  3  4  1  0  0  0
  4  5  2  0  0  0
  5  6  1  0  0  0
  6  7  1  0  0  0
  7  8  1  0  0  0
  8  9  1  0  0  0
  9 10  2  0  0  0
 10 11  1  0  0  0
 11 12  1  0  0  0
 12 13  1  0  0  0
 13 14  1  0  0  0
  5 15  1  0  0  0
 15 16  2  0  0  0
 16  2  1  0  0  0
 14  9  1  0  0  0
  6 17  1  0  0  0
  6 18  1  0  0  0
M  END
>  <CHROM.0>
-59.88758699,67.89399227

>  <CHROM.1>
-76.16056355,-56.59526557,-176.05709990,6.76244886,-1.99988892,25.53444455
4.57523245,1.76928607,1.32393388,3.13490186

>  <Name>
21a5a1d7-7769-4a29-a359-bab32a6af716

>  <RI>
4.24154e+07

>  <Rbt.Current_Directory>
/data/work/jku/5V6S/work/40/8dba899c20c42488f2b1a17844994e

>  <Rbt.Executable>
rbdock ($Id: //depot/dev/client3/rdock/2013.1/src/exe/rbdock.cxx#4 $)

>  <Rbt.Library>
libRbt.so (2013.1, Build901 2013/11/27)

>  <Rbt.Parameter_File>
/rDock_2013.1_src/data/scripts/dock.prm

>  <Rbt.Receptor>
docking.prm

>  <SCORE>
-10.5509

>  <SCORE.INTER>
-9.15796

>  <SCORE.INTER.CONST>
1

>  <SCORE.INTER.POLAR>
0

>  <SCORE.INTER.REPUL>
0

>  <SCORE.INTER.ROT>
4

>  <SCORE.INTER.VDW>
-18.558

>  <SCORE.INTER.norm>
-0.572372

>  <SCORE.INTRA>
0.115837

>  <SCORE.INTRA.DIHEDRAL>
-2.22212

>  <SCORE.INTRA.DIHEDRAL.0>
3.09567

>  <SCORE.INTRA.POLAR>
0

>  <SCORE.INTRA.POLAR.0>
0

>  <SCORE.INTRA.REPUL>
0

>  <SCORE.INTRA.REPUL.0>
0

>  <SCORE.INTRA.VDW>
1.2269

>  <SCORE.INTRA.VDW.0>
-1.09116

>  <SCORE.INTRA.norm>
0.0072398

>  <SCORE.RESTR>
0

>  <SCORE.RESTR.CAVITY>
0

>  <SCORE.RESTR.norm>
0

>  <SCORE.SYSTEM>
-1.50874

>  <SCORE.SYSTEM.CONST>
0

>  <SCORE.SYSTEM.DIHEDRAL>
0.310791

>  <SCORE.SYSTEM.POLAR>
-0.501811

>  <SCORE.SYSTEM.VDW>
0.0420168

>  <SCORE.SYSTEM.norm>
-0.0942965

>  <SCORE.heavy>
16

>  <SCORE.norm>
-0.659429

>  <enum_code>
M

>  <enum_smi>
Clc1ccc([NH2+]CCC2=CCCCC2)nn1

>  <sha256>
6149034aeb29bd8fa0ec2e92d34f1bde0841ca524aca24497fa6898cc79b03a9

>  <std_smi>
Clc1ccc(NCCC2=CCCCC2)nn1

>  <uuid>
21a5a1d7-7769-4a29-a359-bab32a6af716

$$$$
21a5a1d7-7769-4a29-a359-bab32a6af716
  rDOCK(R)          3D
libRbt.so/2013.1/901 2013/11/27
 18 19  0  0  0  0  0  0  0  0999 V2000
    0.7755   32.8678   -0.5499 Cl  0  0  0  0  0  0
   -0.1316   32.6548    0.8787 C   0  0  0  0  0  0
    0.1974   33.2934    2.0598 C   0  0  0  0  0  0
   -0.5981   33.0601    3.1840 C   0  0  0  0  0  0
   -1.6703   32.1945    3.0546 C   0  0  0  0  0  0
   -2.5551   31.9253    4.1582 N   0  3  0  0  0  0
   -2.1887   30.7088    4.9403 C   0  0  0  0  0  0
   -2.1219   29.4529    4.0589 C   0  0  0  0  0  0
   -1.7586   28.1567    4.7586 C   0  0  0  0  0  0
   -1.7692   27.9887    6.0954 C   0  0  0  0  0  0
   -1.4198   26.6924    6.7788 C   0  0  0  0  0  0
   -1.3723   25.4997    5.8265 C   0  0  0  0  0  0
   -0.6442   25.8644    4.5403 C   0  0  0  0  0  0
   -1.3307   27.0332    3.8311 C   0  0  0  0  0  0
   -1.9744   31.5986    1.8923 N   0  0  0  0  0  0
   -1.1908   31.8251    0.7885 N   0  0  0  0  0  0
   -3.4737   31.7800    3.7127 H   0  0  0  0  0  0
   -2.6398   32.7642    4.7385 H   0  0  0  0  0  0
  1  2  1  0  0  0
  2  3  2  0  0  0
  3  4  1  0  0  0
  4  5  2  0  0  0
  5  6  1  0  0  0
  6  7  1  0  0  0
  7  8  1  0  0  0
  8  9  1  0  0  0
  9 10  2  0  0  0
 10 11  1  0  0  0
 11 12  1  0  0  0
 12 13  1  0  0  0
 13 14  1  0  0  0
  5 15  1  0  0  0
 15 16  2  0  0  0
 16  2  1  0  0  0
 14  9  1  0  0  0
  6 17  1  0  0  0
  6 18  1  0  0  0
M  END
>  <CHROM.0>
-59.88758699,69.55194851

>  <CHROM.1>
-94.43678274,-56.68275176,-179.89786096,14.37012128,-1.07706386,30.28037280
3.17208865,-1.23122371,-0.99422679,2.75011355

>  <Name>
21a5a1d7-7769-4a29-a359-bab32a6af716

>  <RI>
4.24154e+07

>  <Rbt.Current_Directory>
/data/work/jku/5V6S/work/40/8dba899c20c42488f2b1a17844994e

>  <Rbt.Executable>
rbdock ($Id: //depot/dev/client3/rdock/2013.1/src/exe/rbdock.cxx#4 $)

>  <Rbt.Library>
libRbt.so (2013.1, Build901 2013/11/27)

>  <Rbt.Parameter_File>
/rDock_2013.1_src/data/scripts/dock.prm

>  <Rbt.Receptor>
docking.prm

>  <SCORE>
-16.476

>  <SCORE.INTER>
-15.1997

>  <SCORE.INTER.CONST>
1

>  <SCORE.INTER.POLAR>
-1.11803

>  <SCORE.INTER.REPUL>
0

>  <SCORE.INTER.ROT>
4

>  <SCORE.INTER.VDW>
-20.7984

>  <SCORE.INTER.norm>
-0.949981

>  <SCORE.INTRA>
0.23548

>  <SCORE.INTRA.DIHEDRAL>
-1.99893

>  <SCORE.INTRA.DIHEDRAL.0>
3.09567

>  <SCORE.INTRA.POLAR>
0

>  <SCORE.INTRA.POLAR.0>
0

>  <SCORE.INTRA.REPUL>
0

>  <SCORE.INTRA.REPUL.0>
0

>  <SCORE.INTRA.VDW>
1.23495

>  <SCORE.INTRA.VDW.0>
-1.09116

>  <SCORE.INTRA.norm>
0.0147175

>  <SCORE.RESTR>
0

>  <SCORE.RESTR.CAVITY>
0

>  <SCORE.RESTR.norm>
0

>  <SCORE.SYSTEM>
-1.51173

>  <SCORE.SYSTEM.CONST>
0

>  <SCORE.SYSTEM.DIHEDRAL>
0.448574

>  <SCORE.SYSTEM.POLAR>
-0.503201

>  <SCORE.SYSTEM.VDW>
-0.0251359

>  <SCORE.SYSTEM.norm>
-0.0944832

>  <SCORE.heavy>
16

>  <SCORE.norm>
-1.02975

>  <enum_code>
M

>  <enum_smi>
Clc1ccc([NH2+]CCC2=CCCCC2)nn1

>  <sha256>
6149034aeb29bd8fa0ec2e92d34f1bde0841ca524aca24497fa6898cc79b03a9

>  <std_smi>
Clc1ccc(NCCC2=CCCCC2)nn1

>  <uuid>
21a5a1d7-7769-4a29-a359-bab32a6af716

$$$$
21a5a1d7-7769-4a29-a359-bab32a6af716
  rDOCK(R)          3D
libRbt.so/2013.1/901 2013/11/27
 18 19  0  0  0  0  0  0  0  0999 V2000
    0.5045   25.3088    3.9169 Cl  0  0  0  0  0  0
   -0.6674   26.4299    4.4453 C   0  0  0  0  0  0
   -1.1688   26.4164    5.7335 C   0  0  0  0  0  0
   -2.1288   27.3693    6.0818 C   0  0  0  0  0  0
   -2.5314   28.2720    5.1130 C   0  0  0  0  0  0
   -3.4942   29.3030    5.4016 N   0  3  0  0  0  0
   -2.9567   30.4087    6.2468 C   0  0  0  0  0  0
   -1.8615   31.2082    5.5257 C   0  0  0  0  0  0
   -2.2884   31.9683    4.2841 C   0  0  0  0  0  0
   -3.5623   32.0654    3.8559 C   0  0  0  0  0  0
   -3.9763   32.8348    2.6287 C   0  0  0  0  0  0
   -2.8849   33.7622    2.0988 C   0  0  0  0  0  0
   -1.5340   33.0605    2.0973 C   0  0  0  0  0  0
   -1.1495   32.6024    3.5054 C   0  0  0  0  0  0
   -2.0183   28.2706    3.8740 N   0  0  0  0  0  0
   -1.0773   27.3322    3.5307 N   0  0  0  0  0  0
   -4.2400   28.8117    5.9172 H   0  0  0  0  0  0
   -3.9109   29.6336    4.5270 H   0  0  0  0  0  0
  1  2  1  0  0  0
  2  3  2  0  0  0
  3  4  1  0  0  0
  4  5  2  0  0  0
  5  6  1  0  0  0
  6  7  1  0  0  0
  7  8  1  0  0  0
  8  9  1  0  0  0
  9 10  2  0  0  0
 10 11  1  0  0  0
 11 12  1  0  0  0
 12 13  1  0  0  0
 13 14  1  0  0  0
  5 15  1  0  0  0
 15 16  2  0  0  0
 16  2  1  0  0  0
 14  9  1  0  0  0
  6 17  1  0  0  0
  6 18  1  0  0  0
M  END
>  <CHROM.0>
-59.88758699,69.28877251

>  <CHROM.1>
73.00567188,65.60320152,64.20295482,5.56460140,-1.84014774,29.41946422,4.22669846
-1.07699146,0.84091870,-0.56707582

>  <Name>
21a5a1d7-7769-4a29-a359-bab32a6af716

>  <RI>
4.24154e+07

>  <Rbt.Current_Directory>
/data/work/jku/5V6S/work/40/8dba899c20c42488f2b1a17844994e

>  <Rbt.Executable>
rbdock ($Id: //depot/dev/client3/rdock/2013.1/src/exe/rbdock.cxx#4 $)

>  <Rbt.Library>
libRbt.so (2013.1, Build901 2013/11/27)

>  <Rbt.Parameter_File>
/rDock_2013.1_src/data/scripts/dock.prm

>  <Rbt.Receptor>
docking.prm

>  <SCORE>
-10.7734

>  <SCORE.INTER>
-8.78759

>  <SCORE.INTER.CONST>
1

>  <SCORE.INTER.POLAR>
0

>  <SCORE.INTER.REPUL>
0

>  <SCORE.INTER.ROT>
4

>  <SCORE.INTER.VDW>
-18.1876

>  <SCORE.INTER.norm>
-0.549225

>  <SCORE.INTRA>
-0.472787

>  <SCORE.INTRA.DIHEDRAL>
-2.17248

>  <SCORE.INTRA.DIHEDRAL.0>
3.09567

>  <SCORE.INTRA.POLAR>
0

>  <SCORE.INTRA.POLAR.0>
0

>  <SCORE.INTRA.REPUL>
0

>  <SCORE.INTRA.REPUL.0>
0

>  <SCORE.INTRA.VDW>
0.61345

>  <SCORE.INTRA.VDW.0>
-1.09116

>  <SCORE.INTRA.norm>
-0.0295492

>  <SCORE.RESTR>
0

>  <SCORE.RESTR.CAVITY>
0

>  <SCORE.RESTR.norm>
0

>  <SCORE.SYSTEM>
-1.51299

>  <SCORE.SYSTEM.CONST>
0

>  <SCORE.SYSTEM.DIHEDRAL>
0.425085

>  <SCORE.SYSTEM.POLAR>
-0.503129

>  <SCORE.SYSTEM.VDW>
-0.0148969

>  <SCORE.SYSTEM.norm>
-0.094562

>  <SCORE.heavy>
16

>  <SCORE.norm>
-0.673336

>  <enum_code>
M

>  <enum_smi>
Clc1ccc([NH2+]CCC2=CCCCC2)nn1

>  <sha256>
6149034aeb29bd8fa0ec2e92d34f1bde0841ca524aca24497fa6898cc79b03a9

>  <std_smi>
Clc1ccc(NCCC2=CCCCC2)nn1

>  <uuid>
21a5a1d7-7769-4a29-a359-bab32a6af716

$$$$
21a5a1d7-7769-4a29-a359-bab32a6af716
  rDOCK(R)          3D
libRbt.so/2013.1/901 2013/11/27
 18 19  0  0  0  0  0  0  0  0999 V2000
    1.0102   32.9764   -0.4366 Cl  0  0  0  0  0  0
   -0.0630   32.7600    0.8713 C   0  0  0  0  0  0
   -1.3069   32.1784    0.7124 C   0  0  0  0  0  0
   -2.1242   32.0423    1.8370 C   0  0  0  0  0  0
   -1.6448   32.5052    3.0500 C   0  0  0  0  0  0
   -2.4139   32.3745    4.2602 N   0  3  0  0  0  0
   -2.3144   31.0276    4.8940 C   0  0  0  0  0  0
   -2.9529   29.9320    4.0276 C   0  0  0  0  0  0
   -3.0769   28.5587    4.6603 C   0  0  0  0  0  0
   -4.2494   27.9527    4.9315 C   0  0  0  0  0  0
   -4.3605   26.5825    5.5475 C   0  0  0  0  0  0
   -3.0460   25.8053    5.5362 C   0  0  0  0  0  0
   -1.8866   26.6995    5.9528 C   0  0  0  0  0  0
   -1.7549   27.9026    5.0171 C   0  0  0  0  0  0
   -0.4277   33.0537    3.1778 N   0  0  0  0  0  0
    0.3741   33.1905    2.0723 N   0  0  0  0  0  0
   -3.3862   32.5376    3.9575 H   0  0  0  0  0  0
   -2.1739   33.1369    4.8997 H   0  0  0  0  0  0
  1  2  1  0  0  0
  2  3  2  0  0  0
  3  4  1  0  0  0
  4  5  2  0  0  0
  5  6  1  0  0  0
  6  7  1  0  0  0
  7  8  1  0  0  0
  8  9  1  0  0  0
  9 10  2  0  0  0
 10 11  1  0  0  0
 11 12  1  0  0  0
 12 13  1  0  0  0
 13 14  1  0  0  0
  5 15  1  0  0  0
 15 16  2  0  0  0
 16  2  1  0  0  0
 14  9  1  0  0  0
  6 17  1  0  0  0
  6 18  1  0  0  0
M  END
>  <CHROM.0>
-59.88758699,68.31093945

>  <CHROM.1>
81.40129498,-66.40679119,-171.89063484,115.52573265,-1.63636081,30.57448893
3.19011537,-0.85025046,-0.89410171,3.06037460

>  <Name>
21a5a1d7-7769-4a29-a359-bab32a6af716

>  <RI>
4.24154e+07

>  <Rbt.Current_Directory>
/data/work/jku/5V6S/work/40/8dba899c20c42488f2b1a17844994e

>  <Rbt.Executable>
rbdock ($Id: //depot/dev/client3/rdock/2013.1/src/exe/rbdock.cxx#4 $)

>  <Rbt.Library>
libRbt.so (2013.1, Build901 2013/11/27)

>  <Rbt.Parameter_File>
/rDock_2013.1_src/data/scripts/dock.prm

>  <Rbt.Receptor>
docking.prm

>  <SCORE>
-15.579

>  <SCORE.INTER>
-14.2325

>  <SCORE.INTER.CONST>
1

>  <SCORE.INTER.POLAR>
-1.11803

>  <SCORE.INTER.REPUL>
0

>  <SCORE.INTER.ROT>
4

>  <SCORE.INTER.VDW>
-19.8312

>  <SCORE.INTER.norm>
-0.889532

>  <SCORE.INTRA>
0.165426

>  <SCORE.INTRA.DIHEDRAL>
-1.82522

>  <SCORE.INTRA.DIHEDRAL.0>
3.09567

>  <SCORE.INTRA.POLAR>
0

>  <SCORE.INTRA.POLAR.0>
0

>  <SCORE.INTRA.REPUL>
0

>  <SCORE.INTRA.REPUL.0>
0

>  <SCORE.INTRA.VDW>
1.07803

>  <SCORE.INTRA.VDW.0>
-1.09116

>  <SCORE.INTRA.norm>
0.0103391

>  <SCORE.RESTR>
0

>  <SCORE.RESTR.CAVITY>
0

>  <SCORE.RESTR.norm>
0

>  <SCORE.SYSTEM>
-1.51196

>  <SCORE.SYSTEM.CONST>
0

>  <SCORE.SYSTEM.DIHEDRAL>
0.343142

>  <SCORE.SYSTEM.POLAR>
-0.502372

>  <SCORE.SYSTEM.VDW>
0.0245289

>  <SCORE.SYSTEM.norm>
-0.0944977

>  <SCORE.heavy>
16

>  <SCORE.norm>
-0.97369

>  <enum_code>
M

>  <enum_smi>
Clc1ccc([NH2+]CCC2=CCCCC2)nn1

>  <sha256>
6149034aeb29bd8fa0ec2e92d34f1bde0841ca524aca24497fa6898cc79b03a9

>  <std_smi>
Clc1ccc(NCCC2=CCCCC2)nn1

>  <uuid>
21a5a1d7-7769-4a29-a359-bab32a6af716

$$$$
95895546-26c6-4484-b864-64703bedb5e3
  rDOCK(R)          3D
libRbt.so/2013.1/901 2013/11/27
 19 20  0  0  0  0  0  0  0  0999 V2000
   -6.2599   24.1485    3.4997 Cl  0  0  0  0  0  0
   -6.0888   25.6123    4.3620 C   0  0  0  0  0  0
   -4.9202   25.9099    5.0634 C   0  0  0  0  0  0
   -4.7859   27.1148    5.7693 C   0  0  0  0  0  0
   -5.8293   28.0261    5.7833 C   0  0  0  0  0  0
   -5.6780   29.2865    6.4809 N   0  3  0  0  0  0
   -5.9281   30.5075    5.6414 C   0  0  0  0  0  0
   -4.6487   31.0103    4.9577 C   0  0  0  0  0  0
   -3.7598   29.9685    4.3061 C   0  0  0  0  0  0
   -4.0184   29.3735    3.1251 C   0  0  0  0  0  0
   -3.1309   28.3271    2.4988 C   0  0  0  0  0  0
   -1.7537   28.2338    3.1508 C   0  0  0  0  0  0
   -1.8729   28.2741    4.6677 C   0  0  0  0  0  0
   -2.5506   29.5642    5.1327 C   0  0  0  0  0  0
   -6.9823   27.8191    5.1247 N   0  0  0  0  0  0
   -7.0939   26.4939    4.3644 N   0  3  0  0  0  0
   -4.7085   29.3247    6.8313 H   0  0  0  0  0  0
   -6.2745   29.3008    7.3190 H   0  0  0  0  0  0
   -7.9428   26.2603    3.8390 H   0  0  0  0  0  0
  1  2  1  0  0  0
  2  3  2  0  0  0
  3  4  1  0  0  0
  4  5  2  0  0  0
  5  6  1  0  0  0
  6  7  1  0  0  0
  7  8  1  0  0  0
  8  9  1  0  0  0
  9 10  2  0  0  0
 10 11  1  0  0  0
 11 12  1  0  0  0
 12 13  1  0  0  0
 13 14  1  0  0  0
  5 15  1  0  0  0
 15 16  2  0  0  0
 16  2  1  0  0  0
 14  9  1  0  0  0
  6 17  1  0  0  0
  6 18  1  0  0  0
 16 19  1  0  0  0
M  END
>  <CHROM.0>
-59.88758699,68.84326595

>  <CHROM.1>
124.41517545,-89.95240277,44.68024021,76.40936923,-4.85346980,27.76730743
4.53214821,-2.15620934,0.44195682,0.40076726

>  <Name>
95895546-26c6-4484-b864-64703bedb5e3

>  <RI>
2.62157e+07

>  <Rbt.Current_Directory>
/data/work/jku/5V6S/work/40/8dba899c20c42488f2b1a17844994e

>  <Rbt.Executable>
rbdock ($Id: //depot/dev/client3/rdock/2013.1/src/exe/rbdock.cxx#4 $)

>  <Rbt.Library>
libRbt.so (2013.1, Build901 2013/11/27)

>  <Rbt.Parameter_File>
/rDock_2013.1_src/data/scripts/dock.prm

>  <Rbt.Receptor>
docking.prm

>  <SCORE>
-11.5122

>  <SCORE.INTER>
-10.246

>  <SCORE.INTER.CONST>
1

>  <SCORE.INTER.POLAR>
-1.34629

>  <SCORE.INTER.REPUL>
0

>  <SCORE.INTER.ROT>
4

>  <SCORE.INTER.VDW>
-15.0686

>  <SCORE.INTER.norm>
-0.640375

>  <SCORE.INTRA>
0.247394

>  <SCORE.INTRA.DIHEDRAL>
3.30488

>  <SCORE.INTRA.DIHEDRAL.0>
2.33395

>  <SCORE.INTRA.POLAR>
0

>  <SCORE.INTRA.POLAR.0>
0

>  <SCORE.INTRA.REPUL>
0

>  <SCORE.INTRA.REPUL.0>
0

>  <SCORE.INTRA.VDW>
-1.40505

>  <SCORE.INTRA.VDW.0>
-1.01506

>  <SCORE.INTRA.norm>
0.0154621

>  <SCORE.RESTR>
0

>  <SCORE.RESTR.CAVITY>
0

>  <SCORE.RESTR.norm>
0

>  <SCORE.SYSTEM>
-1.51365

>  <SCORE.SYSTEM.CONST>
0

>  <SCORE.SYSTEM.DIHEDRAL>
0.386703

>  <SCORE.SYSTEM.POLAR>
-0.50288

>  <SCORE.SYSTEM.VDW>
0.00279305

>  <SCORE.SYSTEM.norm>
-0.094603

>  <SCORE.heavy>
16

>  <SCORE.norm>
-0.719515

>  <enum_code>
M

>  <enum_smi>
Clc1ccc([NH2+]CCC2=CCCCC2)n[nH+]1

>  <sha256>
6149034aeb29bd8fa0ec2e92d34f1bde0841ca524aca24497fa6898cc79b03a9

>  <std_smi>
Clc1ccc(NCCC2=CCCCC2)nn1

>  <uuid>
95895546-26c6-4484-b864-64703bedb5e3

$$$$
95895546-26c6-4484-b864-64703bedb5e3
  rDOCK(R)          3D
libRbt.so/2013.1/901 2013/11/27
 19 20  0  0  0  0  0  0  0  0999 V2000
    0.1556   32.5243   -0.2809 Cl  0  0  0  0  0  0
   -0.4169   31.6136    1.0451 C   0  0  0  0  0  0
   -0.8715   32.2328    2.2095 C   0  0  0  0  0  0
   -1.3411   31.4786    3.2953 C   0  0  0  0  0  0
   -1.3488   30.0952    3.2223 C   0  0  0  0  0  0
   -1.8679   29.3165    4.3278 N   0  3  0  0  0  0
   -3.3174   28.9387    4.2092 C   0  0  0  0  0  0
   -3.7850   28.0669    5.3833 C   0  0  0  0  0  0
   -3.1159   26.7160    5.5487 C   0  0  0  0  0  0
   -2.0085   26.4961    6.2841 C   0  0  0  0  0  0
   -1.3467   25.1482    6.4249 C   0  0  0  0  0  0
   -2.2164   23.9936    5.9335 C   0  0  0  0  0  0
   -2.8783   24.3449    4.6087 C   0  0  0  0  0  0
   -3.7501   25.5946    4.7429 C   0  0  0  0  0  0
   -0.9380   29.4239    2.1329 N   0  0  0  0  0  0
   -0.4325   30.2791    0.9668 N   0  3  0  0  0  0
   -1.7475   29.8837    5.1811 H   0  0  0  0  0  0
   -1.2904   28.4772    4.4713 H   0  0  0  0  0  0
   -0.0996   29.8419    0.1013 H   0  0  0  0  0  0
  1  2  1  0  0  0
  2  3  2  0  0  0
  3  4  1  0  0  0
  4  5  2  0  0  0
  5  6  1  0  0  0
  6  7  1  0  0  0
  7  8  1  0  0  0
  8  9  1  0  0  0
  9 10  2  0  0  0
 10 11  1  0  0  0
 11 12  1  0  0  0
 12 13  1  0  0  0
 13 14  1  0  0  0
  5 15  1  0  0  0
 15 16  2  0  0  0
 16  2  1  0  0  0
 14  9  1  0  0  0
  6 17  1  0  0  0
  6 18  1  0  0  0
 16 19  1  0  0  0
M  END
>  <CHROM.0>
-59.88758699,-179.86916176

>  <CHROM.1>
93.70524185,177.61133409,-62.47895252,90.13134734,-1.66496372,28.84170619
3.39675103,-1.04258854,-0.97262727,2.94248371

>  <Name>
95895546-26c6-4484-b864-64703bedb5e3

>  <RI>
2.62157e+07

>  <Rbt.Current_Directory>
/data/work/jku/5V6S/work/40/8dba899c20c42488f2b1a17844994e

>  <Rbt.Executable>
rbdock ($Id: //depot/dev/client3/rdock/2013.1/src/exe/rbdock.cxx#4 $)

>  <Rbt.Library>
libRbt.so (2013.1, Build901 2013/11/27)

>  <Rbt.Parameter_File>
/rDock_2013.1_src/data/scripts/dock.prm

>  <Rbt.Receptor>
docking.prm

>  <SCORE>
-15.0543

>  <SCORE.INTER>
-14.5538

>  <SCORE.INTER.CONST>
1

>  <SCORE.INTER.POLAR>
-1.40312

>  <SCORE.INTER.REPUL>
0

>  <SCORE.INTER.ROT>
4

>  <SCORE.INTER.VDW>
-19.1832

>  <SCORE.INTER.norm>
-0.909612

>  <SCORE.INTRA>
-0.228766

>  <SCORE.INTRA.DIHEDRAL>
-0.26752

>  <SCORE.INTRA.DIHEDRAL.0>
2.33395

>  <SCORE.INTRA.POLAR>
0

>  <SCORE.INTRA.POLAR.0>
0

>  <SCORE.INTRA.REPUL>
0

>  <SCORE.INTRA.REPUL.0>
0

>  <SCORE.INTRA.VDW>
-0.0950063

>  <SCORE.INTRA.VDW.0>
-1.01506

>  <SCORE.INTRA.norm>
-0.0142979

>  <SCORE.RESTR>
0

>  <SCORE.RESTR.CAVITY>
0

>  <SCORE.RESTR.norm>
0

>  <SCORE.SYSTEM>
-0.271712

>  <SCORE.SYSTEM.CONST>
0

>  <SCORE.SYSTEM.DIHEDRAL>
0.00771576

>  <SCORE.SYSTEM.VDW>
-0.27557

>  <SCORE.SYSTEM.norm>
-0.016982

>  <SCORE.heavy>
16

>  <SCORE.norm>
-0.940892

>  <enum_code>
M

>  <enum_smi>
Clc1ccc([NH2+]CCC2=CCCCC2)n[nH+]1

>  <sha256>
6149034aeb29bd8fa0ec2e92d34f1bde0841ca524aca24497fa6898cc79b03a9

>  <std_smi>
Clc1ccc(NCCC2=CCCCC2)nn1

>  <uuid>
95895546-26c6-4484-b864-64703bedb5e3

$$$$
95895546-26c6-4484-b864-64703bedb5e3
  rDOCK(R)          3D
libRbt.so/2013.1/901 2013/11/27
 19 20  0  0  0  0  0  0  0  0999 V2000
   -0.0812   32.7854    0.8269 Cl  0  0  0  0  0  0
   -0.7456   31.4355    1.6343 C   0  0  0  0  0  0
   -1.1971   31.5264    2.9511 C   0  0  0  0  0  0
   -1.7425   30.4135    3.6084 C   0  0  0  0  0  0
   -1.8300   29.1978    2.9499 C   0  0  0  0  0  0
   -2.4268   28.0576    3.6146 N   0  3  0  0  0  0
   -3.7832   27.6650    3.1007 C   0  0  0  0  0  0
   -4.5607   26.8136    4.1144 C   0  0  0  0  0  0
   -3.9843   25.4538    4.4590 C   0  0  0  0  0  0
   -4.4227   24.2860    3.9492 C   0  0  0  0  0  0
   -3.8480   22.9405    4.3152 C   0  0  0  0  0  0
   -2.5181   23.0333    5.0590 C   0  0  0  0  0  0
   -2.5738   24.1161    6.1272 C   0  0  0  0  0  0
   -2.8895   25.4806    5.5123 C   0  0  0  0  0  0
   -1.4275   29.0307    1.6786 N   0  0  0  0  0  0
   -0.8380   30.2666    0.9919 N   0  3  0  0  0  0
   -2.5143   28.3005    4.6134 H   0  0  0  0  0  0
   -1.7858   27.2535    3.5819 H   0  0  0  0  0  0
   -0.5061   30.2202    0.0230 H   0  0  0  0  0  0
  1  2  1  0  0  0
  2  3  2  0  0  0
  3  4  1  0  0  0
  4  5  2  0  0  0
  5  6  1  0  0  0
  6  7  1  0  0  0
  7  8  1  0  0  0
  8  9  1  0  0  0
  9 10  2  0  0  0
 10 11  1  0  0  0
 11 12  1  0  0  0
 12 13  1  0  0  0
 13 14  1  0  0  0
  5 15  1  0  0  0
 15 16  2  0  0  0
 16  2  1  0  0  0
 14  9  1  0  0  0
  6 17  1  0  0  0
  6 18  1  0  0  0
 16 19  1  0  0  0
M  END
>  <CHROM.0>
-59.88758699,68.52013053

>  <CHROM.1>
107.69407254,-160.01882590,-64.31740239,-100.80417221,-2.21506326,28.08627176
3.19929450,-1.14984779,0.63267846,2.45688756

>  <Name>
95895546-26c6-4484-b864-64703bedb5e3

>  <RI>
2.62157e+07

>  <Rbt.Current_Directory>
/data/work/jku/5V6S/work/40/8dba899c20c42488f2b1a17844994e

>  <Rbt.Executable>
rbdock ($Id: //depot/dev/client3/rdock/2013.1/src/exe/rbdock.cxx#4 $)

>  <Rbt.Library>
libRbt.so (2013.1, Build901 2013/11/27)

>  <Rbt.Parameter_File>
/rDock_2013.1_src/data/scripts/dock.prm

>  <Rbt.Receptor>
docking.prm

>  <SCORE>
-13.9027

>  <SCORE.INTER>
-12.5047

>  <SCORE.INTER.CONST>
1

>  <SCORE.INTER.POLAR>
-1.40312

>  <SCORE.INTER.REPUL>
0

>  <SCORE.INTER.ROT>
4

>  <SCORE.INTER.VDW>
-17.1341

>  <SCORE.INTER.norm>
-0.781543

>  <SCORE.INTRA>
0.114969

>  <SCORE.INTRA.DIHEDRAL>
-0.0302844

>  <SCORE.INTRA.DIHEDRAL.0>
2.33395

>  <SCORE.INTRA.POLAR>
0

>  <SCORE.INTRA.POLAR.0>
0

>  <SCORE.INTRA.REPUL>
0

>  <SCORE.INTRA.REPUL.0>
0

>  <SCORE.INTRA.VDW>
0.130111

>  <SCORE.INTRA.VDW.0>
-1.01506

>  <SCORE.INTRA.norm>
0.00718554

>  <SCORE.RESTR>
0

>  <SCORE.RESTR.CAVITY>
0

>  <SCORE.RESTR.norm>
0

>  <SCORE.SYSTEM>
-1.51295

>  <SCORE.SYSTEM.CONST>
0

>  <SCORE.SYSTEM.DIHEDRAL>
0.35996

>  <SCORE.SYSTEM.POLAR>
-0.502599

>  <SCORE.SYSTEM.VDW>
0.0159087

>  <SCORE.SYSTEM.norm>
-0.0945593

>  <SCORE.heavy>
16

>  <SCORE.norm>
-0.868917

>  <enum_code>
M

>  <enum_smi>
Clc1ccc([NH2+]CCC2=CCCCC2)n[nH+]1

>  <sha256>
6149034aeb29bd8fa0ec2e92d34f1bde0841ca524aca24497fa6898cc79b03a9

>  <std_smi>
Clc1ccc(NCCC2=CCCCC2)nn1

>  <uuid>
95895546-26c6-4484-b864-64703bedb5e3

$$$$
95895546-26c6-4484-b864-64703bedb5e3
  rDOCK(R)          3D
libRbt.so/2013.1/901 2013/11/27
 19 20  0  0  0  0  0  0  0  0999 V2000
    0.6523   32.3131   -0.1758 Cl  0  0  0  0  0  0
   -0.1153   32.1953    1.3449 C   0  0  0  0  0  0
   -0.2149   33.2963    2.1956 C   0  0  0  0  0  0
   -0.8475   33.1929    3.4435 C   0  0  0  0  0  0
   -1.3770   31.9789    3.8499 C   0  0  0  0  0  0
   -2.0629   31.8796    5.1218 N   0  3  0  0  0  0
   -3.1055   30.8000    5.1951 C   0  0  0  0  0  0
   -2.4833   29.4071    5.3681 C   0  0  0  0  0  0
   -3.4300   28.2223    5.3554 C   0  0  0  0  0  0
   -4.7718   28.3148    5.4390 C   0  0  0  0  0  0
   -5.6979   27.1244    5.4409 C   0  0  0  0  0  0
   -5.0160   25.8274    5.0128 C   0  0  0  0  0  0
   -3.6538   25.6910    5.6780 C   0  0  0  0  0  0
   -2.7445   26.8668    5.3171 C   0  0  0  0  0  0
   -1.3316   30.8750    3.0848 N   0  0  0  0  0  0
   -0.6343   31.0246    1.7290 N   0  3  0  0  0  0
   -2.5218   32.7881    5.2905 H   0  0  0  0  0  0
   -1.3807   31.7700    5.8841 H   0  0  0  0  0  0
   -0.5563   30.2280    1.0884 H   0  0  0  0  0  0
  1  2  1  0  0  0
  2  3  2  0  0  0
  3  4  1  0  0  0
  4  5  2  0  0  0
  5  6  1  0  0  0
  6  7  1  0  0  0
  7  8  1  0  0  0
  8  9  1  0  0  0
  9 10  2  0  0  0
 10 11  1  0  0  0
 11 12  1  0  0  0
 12 13  1  0  0  0
 13 14  1  0  0  0
  5 15  1  0  0  0
 15 16  2  0  0  0
 16  2  1  0  0  0
 14  9  1  0  0  0
  6 17  1  0  0  0
  6 18  1  0  0  0
 16 19  1  0  0  0
M  END
>  <CHROM.0>
-59.88758699,-61.87222079

>  <CHROM.1>
152.78412633,77.00484460,-175.73759380,-12.17589361,-2.04923048,30.12822149
3.60905444,-0.30661079,-0.97949593,-2.60474260

>  <Name>
95895546-26c6-4484-b864-64703bedb5e3

>  <RI>
2.62157e+07

>  <Rbt.Current_Directory>
/data/work/jku/5V6S/work/40/8dba899c20c42488f2b1a17844994e

>  <Rbt.Executable>
rbdock ($Id: //depot/dev/client3/rdock/2013.1/src/exe/rbdock.cxx#4 $)

>  <Rbt.Library>
libRbt.so (2013.1, Build901 2013/11/27)

>  <Rbt.Parameter_File>
/rDock_2013.1_src/data/scripts/dock.prm

>  <Rbt.Receptor>
docking.prm

>  <SCORE>
-14.111

>  <SCORE.INTER>
-16.4261

>  <SCORE.INTER.CONST>
1

>  <SCORE.INTER.POLAR>
-1.11434

>  <SCORE.INTER.REPUL>
0

>  <SCORE.INTER.ROT>
4

>  <SCORE.INTER.VDW>
-22.0374

>  <SCORE.INTER.norm>
-1.02663

>  <SCORE.INTRA>
1.29292

>  <SCORE.INTRA.DIHEDRAL>
-0.837636

>  <SCORE.INTRA.DIHEDRAL.0>
2.33395

>  <SCORE.INTRA.POLAR>
0

>  <SCORE.INTRA.POLAR.0>
0

>  <SCORE.INTRA.REPUL>
0

>  <SCORE.INTRA.REPUL.0>
0

>  <SCORE.INTRA.VDW>
1.71173

>  <SCORE.INTRA.VDW.0>
-1.01506

>  <SCORE.INTRA.norm>
0.0808073

>  <SCORE.RESTR>
0

>  <SCORE.RESTR.CAVITY>
0

>  <SCORE.RESTR.norm>
0

>  <SCORE.SYSTEM>
1.02223

>  <SCORE.SYSTEM.CONST>
0

>  <SCORE.SYSTEM.DIHEDRAL>
0.024915

>  <SCORE.SYSTEM.REPUL>
0.135693

>  <SCORE.SYSTEM.VDW>
0.331307

>  <SCORE.SYSTEM.norm>
0.0638894

>  <SCORE.heavy>
16

>  <SCORE.norm>
-0.881937

>  <enum_code>
M

>  <enum_smi>
Clc1ccc([NH2+]CCC2=CCCCC2)n[nH+]1

>  <sha256>
6149034aeb29bd8fa0ec2e92d34f1bde0841ca524aca24497fa6898cc79b03a9

>  <std_smi>
Clc1ccc(NCCC2=CCCCC2)nn1

>  <uuid>
95895546-26c6-4484-b864-64703bedb5e3

$$$$
95895546-26c6-4484-b864-64703bedb5e3
  rDOCK(R)          3D
libRbt.so/2013.1/901 2013/11/27
 19 20  0  0  0  0  0  0  0  0999 V2000
    1.1893   32.3770   -0.1138 Cl  0  0  0  0  0  0
    0.1525   32.2006    1.2314 C   0  0  0  0  0  0
   -0.1376   33.2763    2.0709 C   0  0  0  0  0  0
   -0.9908   33.1246    3.1742 C   0  0  0  0  0  0
   -1.5520   31.8878    3.4474 C   0  0  0  0  0  0
   -2.4622   31.7385    4.5642 N   0  3  0  0  0  0
   -1.9059   30.9801    5.7361 C   0  0  0  0  0  0
   -3.0132   30.3768    6.6119 C   0  0  0  0  0  0
   -3.8405   29.2597    6.0055 C   0  0  0  0  0  0
   -3.3294   28.1975    5.3526 C   0  0  0  0  0  0
   -4.1681   27.1031    4.7415 C   0  0  0  0  0  0
   -5.6228   27.1268    5.2040 C   0  0  0  0  0  0
   -6.1657   28.5487    5.1991 C   0  0  0  0  0  0
   -5.3433   29.4553    6.1165 C   0  0  0  0  0  0
   -1.3311   30.8058    2.6816 N   0  0  0  0  0  0
   -0.3954   31.0079    1.4857 N   0  3  0  0  0  0
   -3.2917   31.2350    4.2140 H   0  0  0  0  0  0
   -2.8064   32.6600    4.8657 H   0  0  0  0  0  0
   -0.1750   30.2305    0.8547 H   0  0  0  0  0  0
  1  2  1  0  0  0
  2  3  2  0  0  0
  3  4  1  0  0  0
  4  5  2  0  0  0
  5  6  1  0  0  0
  6  7  1  0  0  0
  7  8  1  0  0  0
  8  9  1  0  0  0
  9 10  2  0  0  0
 10 11  1  0  0  0
 11 12  1  0  0  0
 12 13  1  0  0  0
 13 14  1  0  0  0
  5 15  1  0  0  0
 15 16  2  0  0  0
 16  2  1  0  0  0
 14  9  1  0  0  0
  6 17  1  0  0  0
  6 18  1  0  0  0
 16 19  1  0  0  0
M  END
>  <CHROM.0>
-59.88758699,-59.78589934

>  <CHROM.1>
-108.12970419,-157.27438987,67.70222670,47.19473384,-2.13379605,30.61883113
3.61217795,0.08942691,-0.86249728,-2.33542738

>  <Name>
95895546-26c6-4484-b864-64703bedb5e3

>  <RI>
2.62157e+07

>  <Rbt.Current_Directory>
/data/work/jku/5V6S/work/40/8dba899c20c42488f2b1a17844994e

>  <Rbt.Executable>
rbdock ($Id: //depot/dev/client3/rdock/2013.1/src/exe/rbdock.cxx#4 $)

>  <Rbt.Library>
libRbt.so (2013.1, Build901 2013/11/27)

>  <Rbt.Parameter_File>
/rDock_2013.1_src/data/scripts/dock.prm

>  <Rbt.Receptor>
docking.prm

>  <SCORE>
-12.7396

>  <SCORE.INTER>
-14.8607

>  <SCORE.INTER.CONST>
1

>  <SCORE.INTER.POLAR>
-1.11803

>  <SCORE.INTER.REPUL>
0

>  <SCORE.INTER.ROT>
4

>  <SCORE.INTER.VDW>
-20.4593

>  <SCORE.INTER.norm>
-0.928791

>  <SCORE.INTRA>
1.07616

>  <SCORE.INTRA.DIHEDRAL>
2.02086

>  <SCORE.INTRA.DIHEDRAL.0>
2.33395

>  <SCORE.INTRA.POLAR>
0

>  <SCORE.INTRA.POLAR.0>
0

>  <SCORE.INTRA.REPUL>
0

>  <SCORE.INTRA.REPUL.0>
0

>  <SCORE.INTRA.VDW>
0.0657324

>  <SCORE.INTRA.VDW.0>
-1.01506

>  <SCORE.INTRA.norm>
0.0672601

>  <SCORE.RESTR>
0

>  <SCORE.RESTR.CAVITY>
0

>  <SCORE.RESTR.norm>
0

>  <SCORE.SYSTEM>
1.0449

>  <SCORE.SYSTEM.CONST>
0

>  <SCORE.SYSTEM.DIHEDRAL>
0.00785749

>  <SCORE.SYSTEM.REPUL>
0.119551

>  <SCORE.SYSTEM.VDW>
0.443214

>  <SCORE.SYSTEM.norm>
0.0653061

>  <SCORE.heavy>
16

>  <SCORE.norm>
-0.796225

>  <enum_code>
M

>  <enum_smi>
Clc1ccc([NH2+]CCC2=CCCCC2)n[nH+]1

>  <sha256>
6149034aeb29bd8fa0ec2e92d34f1bde0841ca524aca24497fa6898cc79b03a9

>  <std_smi>
Clc1ccc(NCCC2=CCCCC2)nn1

>  <uuid>
95895546-26c6-4484-b864-64703bedb5e3

$$$$
6a17202a-cc9c-4bc1-819d-b3f02a448f2b
  rDOCK(R)          3D
libRbt.so/2013.1/901 2013/11/27
 19 20  0  0  0  0  0  0  0  0999 V2000
    1.0477   32.3774    0.4904 Cl  0  0  0  0  0  0
   -0.4095   32.5427    1.3590 C   0  0  0  0  0  0
   -1.6266   32.2066    0.8043 C   0  0  0  0  0  0
   -2.7960   32.3585    1.5595 C   0  0  0  0  0  0
   -2.7550   32.8434    2.8756 C   0  0  0  0  0  0
   -4.0258   32.9825    3.5984 N   0  3  0  0  0  0
   -4.7437   31.6823    3.8514 C   0  0  0  0  0  0
   -3.9740   30.7970    4.8362 C   0  0  0  0  0  0
   -4.4817   29.3804    4.8239 C   0  0  0  0  0  0
   -5.4038   28.9582    5.7087 C   0  0  0  0  0  0
   -5.9486   27.5543    5.7509 C   0  0  0  0  0  0
   -5.1418   26.5683    4.9079 C   0  0  0  0  0  0
   -4.7684   27.1797    3.5637 C   0  0  0  0  0  0
   -3.9458   28.4571    3.7487 C   0  0  0  0  0  0
   -1.5576   33.1747    3.4005 N   0  3  0  0  0  0
   -0.2790   33.0182    2.6053 N   0  0  0  0  0  0
   -3.8857   33.4896    4.4867 H   0  0  0  0  0  0
   -4.6617   33.6024    3.0675 H   0  0  0  0  0  0
   -1.4607   33.5421    4.3496 H   0  0  0  0  0  0
  1  2  1  0  0  0
  2  3  2  0  0  0
  3  4  1  0  0  0
  4  5  2  0  0  0
  5  6  1  0  0  0
  6  7  1  0  0  0
  7  8  1  0  0  0
  8  9  1  0  0  0
  9 10  2  0  0  0
 10 11  1  0  0  0
 11 12  1  0  0  0
 12 13  1  0  0  0
 13 14  1  0  0  0
  5 15  1  0  0  0
 15 16  2  0  0  0
 16  2  1  0  0  0
 14  9  1  0  0  0
  6 17  1  0  0  0
  6 18  1  0  0  0
 15 19  1  0  0  0
M  END
>  <CHROM.0>
-59.88758699,69.24603528

>  <CHROM.1>
64.31454261,67.44303715,-165.30962673,-94.86526552,-2.81504937,30.90834912
3.13556843,-0.60005725,-0.66282216,-3.08155493

>  <Name>
6a17202a-cc9c-4bc1-819d-b3f02a448f2b

>  <RI>
2.92099e+07

>  <Rbt.Current_Directory>
/data/work/jku/5V6S/work/40/8dba899c20c42488f2b1a17844994e

>  <Rbt.Executable>
rbdock ($Id: //depot/dev/client3/rdock/2013.1/src/exe/rbdock.cxx#4 $)

>  <Rbt.Library>
libRbt.so (2013.1, Build901 2013/11/27)

>  <Rbt.Parameter_File>
/rDock_2013.1_src/data/scripts/dock.prm

>  <Rbt.Receptor>
docking.prm

>  <SCORE>
-16.4417

>  <SCORE.INTER>
-15.3598

>  <SCORE.INTER.CONST>
1

>  <SCORE.INTER.POLAR>
-2.19397

>  <SCORE.INTER.REPUL>
0

>  <SCORE.INTER.ROT>
4

>  <SCORE.INTER.VDW>
-17.3003

>  <SCORE.INTER.norm>
-0.959988

>  <SCORE.INTRA>
0.431199

>  <SCORE.INTRA.DIHEDRAL>
1.06729

>  <SCORE.INTRA.DIHEDRAL.0>
1.49686

>  <SCORE.INTRA.POLAR>
0

>  <SCORE.INTRA.POLAR.0>
0

>  <SCORE.INTRA.REPUL>
0

>  <SCORE.INTRA.REPUL.0>
0

>  <SCORE.INTRA.VDW>
-0.102446

>  <SCORE.INTRA.VDW.0>
-0.617976

>  <SCORE.INTRA.norm>
0.0269499

>  <SCORE.RESTR>
0

>  <SCORE.RESTR.CAVITY>
0

>  <SCORE.RESTR.norm>
0

>  <SCORE.SYSTEM>
-1.51314

>  <SCORE.SYSTEM.CONST>
0

>  <SCORE.SYSTEM.DIHEDRAL>
0.421328

>  <SCORE.SYSTEM.POLAR>
-0.503112

>  <SCORE.SYSTEM.VDW>
-0.0132194

>  <SCORE.SYSTEM.norm>
-0.094571

>  <SCORE.heavy>
16

>  <SCORE.norm>
-1.02761

>  <enum_code>
M

>  <enum_smi>
Clc1ccc([NH2+]CCC2=CCCCC2)[nH+]n1

>  <sha256>
6149034aeb29bd8fa0ec2e92d34f1bde0841ca524aca24497fa6898cc79b03a9

>  <std_smi>
Clc1ccc(NCCC2=CCCCC2)nn1

>  <uuid>
6a17202a-cc9c-4bc1-819d-b3f02a448f2b

$$$$
6a17202a-cc9c-4bc1-819d-b3f02a448f2b
  rDOCK(R)          3D
libRbt.so/2013.1/901 2013/11/27
 19 20  0  0  0  0  0  0  0  0999 V2000
    0.8954   32.9296   -0.4723 Cl  0  0  0  0  0  0
   -0.1623   32.7749    0.8552 C   0  0  0  0  0  0
    0.2080   33.1605    2.1265 C   0  0  0  0  0  0
   -0.6980   33.0153    3.1843 C   0  0  0  0  0  0
   -1.9815   32.4876    2.9766 C   0  0  0  0  0  0
   -2.8698   32.3590    4.1389 N   0  3  0  0  0  0
   -2.9123   30.9783    4.7404 C   0  0  0  0  0  0
   -3.4637   29.9494    3.7487 C   0  0  0  0  0  0
   -3.4485   28.5591    4.3245 C   0  0  0  0  0  0
   -4.5879   27.9283    4.6643 C   0  0  0  0  0  0
   -4.6394   26.5405    5.2480 C   0  0  0  0  0  0
   -3.2762   26.0295    5.7109 C   0  0  0  0  0  0
   -2.1941   26.3675    4.6937 C   0  0  0  0  0  0
   -2.1024   27.8785    4.4678 C   0  0  0  0  0  0
   -2.3252   32.1083    1.7288 N   0  3  0  0  0  0
   -1.3646   32.2565    0.5683 N   0  0  0  0  0  0
   -2.6261   33.0543    4.8620 H   0  0  0  0  0  0
   -3.8339   32.6220    3.8704 H   0  0  0  0  0  0
   -3.2409   31.7083    1.5129 H   0  0  0  0  0  0
  1  2  1  0  0  0
  2  3  2  0  0  0
  3  4  1  0  0  0
  4  5  2  0  0  0
  5  6  1  0  0  0
  6  7  1  0  0  0
  7  8  1  0  0  0
  8  9  1  0  0  0
  9 10  2  0  0  0
 10 11  1  0  0  0
 11 12  1  0  0  0
 12 13  1  0  0  0
 13 14  1  0  0  0
  5 15  1  0  0  0
 15 16  2  0  0  0
 16  2  1  0  0  0
 14  9  1  0  0  0
  6 17  1  0  0  0
  6 18  1  0  0  0
 15 19  1  0  0  0
M  END
>  <CHROM.0>
-59.88758699,69.24073388

>  <CHROM.1>
-98.39968851,-62.76226480,177.39111342,109.41244213,-1.93505451,30.55432915
2.97337571,-0.87348553,-0.80797705,3.03447243

>  <Name>
6a17202a-cc9c-4bc1-819d-b3f02a448f2b

>  <RI>
2.92099e+07

>  <Rbt.Current_Directory>
/data/work/jku/5V6S/work/40/8dba899c20c42488f2b1a17844994e

>  <Rbt.Executable>
rbdock ($Id: //depot/dev/client3/rdock/2013.1/src/exe/rbdock.cxx#4 $)

>  <Rbt.Library>
libRbt.so (2013.1, Build901 2013/11/27)

>  <Rbt.Parameter_File>
/rDock_2013.1_src/data/scripts/dock.prm

>  <Rbt.Receptor>
docking.prm

>  <SCORE>
-15.1575

>  <SCORE.INTER>
-13.375

>  <SCORE.INTER.CONST>
1

>  <SCORE.INTER.POLAR>
-1.11803

>  <SCORE.INTER.REPUL>
0

>  <SCORE.INTER.ROT>
4

>  <SCORE.INTER.VDW>
-18.9737

>  <SCORE.INTER.norm>
-0.83594

>  <SCORE.INTRA>
-0.269282

>  <SCORE.INTRA.DIHEDRAL>
-0.435476

>  <SCORE.INTRA.DIHEDRAL.0>
1.49686

>  <SCORE.INTRA.POLAR>
0

>  <SCORE.INTRA.POLAR.0>
0

>  <SCORE.INTRA.REPUL>
0

>  <SCORE.INTRA.REPUL.0>
0

>  <SCORE.INTRA.VDW>
-0.0515434

>  <SCORE.INTRA.VDW.0>
-0.617976

>  <SCORE.INTRA.norm>
-0.0168301

>  <SCORE.RESTR>
0

>  <SCORE.RESTR.CAVITY>
0

>  <SCORE.RESTR.norm>
0

>  <SCORE.SYSTEM>
-1.51315

>  <SCORE.SYSTEM.CONST>
0

>  <SCORE.SYSTEM.DIHEDRAL>
0.420863

>  <SCORE.SYSTEM.POLAR>
-0.50311

>  <SCORE.SYSTEM.VDW>
-0.0130111

>  <SCORE.SYSTEM.norm>
-0.094572

>  <SCORE.heavy>
16

>  <SCORE.norm>
-0.947342

>  <enum_code>
M

>  <enum_smi>
Clc1ccc([NH2+]CCC2=CCCCC2)[nH+]n1

>  <sha256>
6149034aeb29bd8fa0ec2e92d34f1bde0841ca524aca24497fa6898cc79b03a9

>  <std_smi>
Clc1ccc(NCCC2=CCCCC2)nn1

>  <uuid>
6a17202a-cc9c-4bc1-819d-b3f02a448f2b

$$$$
6a17202a-cc9c-4bc1-819d-b3f02a448f2b
  rDOCK(R)          3D
libRbt.so/2013.1/901 2013/11/27
 19 20  0  0  0  0  0  0  0  0999 V2000
    1.0563   32.4980   -0.1203 Cl  0  0  0  0  0  0
   -0.2388   32.7188    0.9655 C   0  0  0  0  0  0
   -0.0348   33.1492    2.2599 C   0  0  0  0  0  0
   -1.1321   33.3175    3.1134 C   0  0  0  0  0  0
   -2.4406   33.0606    2.6766 C   0  0  0  0  0  0
   -3.5368   33.2524    3.6347 N   0  3  0  0  0  0
   -4.3395   32.0096    3.9195 C   0  0  0  0  0  0
   -3.4827   30.9256    4.5804 C   0  0  0  0  0  0
   -4.2097   29.6100    4.6533 C   0  0  0  0  0  0
   -3.7965   28.5404    3.9484 C   0  0  0  0  0  0
   -4.4820   27.1993    3.9751 C   0  0  0  0  0  0
   -5.8636   27.2405    4.6257 C   0  0  0  0  0  0
   -5.8448   28.0901    5.8898 C   0  0  0  0  0  0
   -5.4017   29.5229    5.5846 C   0  0  0  0  0  0
   -2.6221   32.6331    1.4103 N   0  3  0  0  0  0
   -1.4528   32.4449    0.4677 N   0  0  0  0  0  0
   -3.1831   33.6566    4.5164 H   0  0  0  0  0  0
   -4.1839   33.9787    3.2820 H   0  0  0  0  0  0
   -3.5484   32.4198    1.0341 H   0  0  0  0  0  0
  1  2  1  0  0  0
  2  3  2  0  0  0
  3  4  1  0  0  0
  4  5  2  0  0  0
  5  6  1  0  0  0
  6  7  1  0  0  0
  7  8  1  0  0  0
  8  9  1  0  0  0
  9 10  2  0  0  0
 10 11  1  0  0  0
 11 12  1  0  0  0
 12 13  1  0  0  0
 13 14  1  0  0  0
  5 15  1  0  0  0
 15 16  2  0  0  0
 16  2  1  0  0  0
 14  9  1  0  0  0
  6 17  1  0  0  0
  6 18  1  0  0  0
 15 19  1  0  0  0
M  END
>  <CHROM.0>
-59.88758699,68.29288506

>  <CHROM.1>
-119.43186528,63.32345285,-170.31006002,113.45632358,-2.66998650,31.14703001
2.93503272,-0.48748361,-0.74629695,-2.99852015

>  <Name>
6a17202a-cc9c-4bc1-819d-b3f02a448f2b

>  <RI>
2.92099e+07

>  <Rbt.Current_Directory>
/data/work/jku/5V6S/work/40/8dba899c20c42488f2b1a17844994e

>  <Rbt.Executable>
rbdock ($Id: //depot/dev/client3/rdock/2013.1/src/exe/rbdock.cxx#4 $)

>  <Rbt.Library>
libRbt.so (2013.1, Build901 2013/11/27)

>  <Rbt.Parameter_File>
/rDock_2013.1_src/data/scripts/dock.prm

>  <Rbt.Receptor>
docking.prm

>  <SCORE>
-14.9947

>  <SCORE.INTER>
-13.3754

>  <SCORE.INTER.CONST>
1

>  <SCORE.INTER.POLAR>
-1.11803

>  <SCORE.INTER.REPUL>
0

>  <SCORE.INTER.ROT>
4

>  <SCORE.INTER.VDW>
-18.9741

>  <SCORE.INTER.norm>
-0.835962

>  <SCORE.INTRA>
-0.107409

>  <SCORE.INTRA.DIHEDRAL>
-0.28558

>  <SCORE.INTRA.DIHEDRAL.0>
1.49686

>  <SCORE.INTRA.POLAR>
0

>  <SCORE.INTRA.POLAR.0>
0

>  <SCORE.INTRA.REPUL>
0

>  <SCORE.INTRA.REPUL.0>
0

>  <SCORE.INTRA.VDW>
0.0353811

>  <SCORE.INTRA.VDW.0>
-0.617976

>  <SCORE.INTRA.norm>
-0.00671305

>  <SCORE.RESTR>
0

>  <SCORE.RESTR.CAVITY>
0

>  <SCORE.RESTR.norm>
0

>  <SCORE.SYSTEM>
-1.51186

>  <SCORE.SYSTEM.CONST>
0

>  <SCORE.SYSTEM.DIHEDRAL>
0.341708

>  <SCORE.SYSTEM.POLAR>
-0.50235

>  <SCORE.SYSTEM.VDW>
0.0252776

>  <SCORE.SYSTEM.norm>
-0.0944912

>  <SCORE.heavy>
16

>  <SCORE.norm>
-0.937167

>  <enum_code>
M

>  <enum_smi>
Clc1ccc([NH2+]CCC2=CCCCC2)[nH+]n1

>  <sha256>
6149034aeb29bd8fa0ec2e92d34f1bde0841ca524aca24497fa6898cc79b03a9

>  <std_smi>
Clc1ccc(NCCC2=CCCCC2)nn1

>  <uuid>
6a17202a-cc9c-4bc1-819d-b3f02a448f2b

$$$$
6a17202a-cc9c-4bc1-819d-b3f02a448f2b
  rDOCK(R)          3D
libRbt.so/2013.1/901 2013/11/27
 19 20  0  0  0  0  0  0  0  0999 V2000
   -3.3116   22.3596    4.8171 Cl  0  0  0  0  0  0
   -3.6087   24.0376    4.7844 C   0  0  0  0  0  0
   -3.0420   24.8926    5.7063 C   0  0  0  0  0  0
   -3.3152   26.2642    5.6361 C   0  0  0  0  0  0
   -4.1534   26.7899    4.6411 C   0  0  0  0  0  0
   -4.3977   28.2379    4.6404 N   0  3  0  0  0  0
   -3.2914   29.0558    4.0263 C   0  0  0  0  0  0
   -3.6700   30.5374    3.9375 C   0  0  0  0  0  0
   -2.5563   31.3612    3.3495 C   0  0  0  0  0  0
   -1.8978   32.2766    4.0844 C   0  0  0  0  0  0
   -0.7786   33.1343    3.5541 C   0  0  0  0  0  0
   -0.6607   33.0991    2.0313 C   0  0  0  0  0  0
   -0.8205   31.6784    1.5057 C   0  0  0  0  0  0
   -2.1753   31.0908    1.9082 C   0  0  0  0  0  0
   -4.7056   25.9392    3.7519 N   0  3  0  0  0  0
   -4.4247   24.4528    3.8054 N   0  0  0  0  0  0
   -5.2968   28.4552    4.1817 H   0  0  0  0  0  0
   -4.5395   28.5671    5.6111 H   0  0  0  0  0  0
   -5.3318   26.2572    3.0091 H   0  0  0  0  0  0
  1  2  1  0  0  0
  2  3  2  0  0  0
  3  4  1  0  0  0
  4  5  2  0  0  0
  5  6  1  0  0  0
  6  7  1  0  0  0
  7  8  1  0  0  0
  8  9  1  0  0  0
  9 10  2  0  0  0
 10 11  1  0  0  0
 11 12  1  0  0  0
 12 13  1  0  0  0
 13 14  1  0  0  0
  5 15  1  0  0  0
 15 16  2  0  0  0
 16  2  1  0  0  0
 14  9  1  0  0  0
  6 17  1  0  0  0
  6 18  1  0  0  0
 15 19  1  0  0  0
M  END
>  <CHROM.0>
-59.88758699,68.41419605

>  <CHROM.1>
79.96555231,174.54267491,178.87478149,-113.22865511,-2.97580616,27.93264170
3.94895583,-1.86567885,0.62079686,-0.05273451

>  <Name>
6a17202a-cc9c-4bc1-819d-b3f02a448f2b

>  <RI>
2.92099e+07

>  <Rbt.Current_Directory>
/data/work/jku/5V6S/work/40/8dba899c20c42488f2b1a17844994e

>  <Rbt.Executable>
rbdock ($Id: //depot/dev/client3/rdock/2013.1/src/exe/rbdock.cxx#4 $)

>  <Rbt.Library>
libRbt.so (2013.1, Build901 2013/11/27)

>  <Rbt.Parameter_File>
/rDock_2013.1_src/data/scripts/dock.prm

>  <Rbt.Receptor>
docking.prm

>  <SCORE>
-8.68014

>  <SCORE.INTER>
-7.12877

>  <SCORE.INTER.CONST>
1

>  <SCORE.INTER.POLAR>
0

>  <SCORE.INTER.REPUL>
0

>  <SCORE.INTER.ROT>
4

>  <SCORE.INTER.VDW>
-16.5288

>  <SCORE.INTER.norm>
-0.445548

>  <SCORE.INTRA>
-0.0388705

>  <SCORE.INTRA.DIHEDRAL>
-0.599187

>  <SCORE.INTRA.DIHEDRAL.0>
1.49686

>  <SCORE.INTRA.POLAR>
0

>  <SCORE.INTRA.POLAR.0>
0

>  <SCORE.INTRA.REPUL>
0

>  <SCORE.INTRA.REPUL.0>
0

>  <SCORE.INTRA.VDW>
0.260723

>  <SCORE.INTRA.VDW.0>
-0.617976

>  <SCORE.INTRA.norm>
-0.00242941

>  <SCORE.RESTR>
0

>  <SCORE.RESTR.CAVITY>
0

>  <SCORE.RESTR.norm>
0

>  <SCORE.SYSTEM>
-1.5125

>  <SCORE.SYSTEM.CONST>
0

>  <SCORE.SYSTEM.DIHEDRAL>
0.351394

>  <SCORE.SYSTEM.POLAR>
-0.502488

>  <SCORE.SYSTEM.VDW>
0.0202612

>  <SCORE.SYSTEM.norm>
-0.0945314

>  <SCORE.heavy>
16

>  <SCORE.norm>
-0.542509

>  <enum_code>
M

>  <enum_smi>
Clc1ccc([NH2+]CCC2=CCCCC2)[nH+]n1

>  <sha256>
6149034aeb29bd8fa0ec2e92d34f1bde0841ca524aca24497fa6898cc79b03a9

>  <std_smi>
Clc1ccc(NCCC2=CCCCC2)nn1

>  <uuid>
6a17202a-cc9c-4bc1-819d-b3f02a448f2b

$$$$
6a17202a-cc9c-4bc1-819d-b3f02a448f2b
  rDOCK(R)          3D
libRbt.so/2013.1/901 2013/11/27
 19 20  0  0  0  0  0  0  0  0999 V2000
   -0.1882   24.2741    6.0171 Cl  0  0  0  0  0  0
   -1.0272   25.4149    5.0686 C   0  0  0  0  0  0
   -2.3874   25.6043    5.1961 C   0  0  0  0  0  0
   -3.0309   26.5557    4.3951 C   0  0  0  0  0  0
   -2.3176   27.3267    3.4647 C   0  0  0  0  0  0
   -3.0663   28.2971    2.6559 N   0  3  0  0  0  0
   -3.3030   29.6217    3.3336 C   0  0  0  0  0  0
   -1.9925   30.2449    3.8238 C   0  0  0  0  0  0
   -1.3037   31.0202    2.7333 C   0  0  0  0  0  0
   -1.0589   32.3379    2.8569 C   0  0  0  0  0  0
   -0.3781   33.1698    1.8015 C   0  0  0  0  0  0
   -0.2674   32.4610    0.4527 C   0  0  0  0  0  0
    0.1482   31.0070    0.6344 C   0  0  0  0  0  0
   -0.8573   30.2511    1.5065 C   0  0  0  0  0  0
   -0.9893   27.1239    3.3472 N   0  3  0  0  0  0
   -0.2702   26.1028    4.2024 N   0  0  0  0  0  0
   -2.6062   28.4422    1.7431 H   0  0  0  0  0  0
   -3.9862   27.8992    2.3987 H   0  0  0  0  0  0
   -0.4145   27.6459    2.6822 H   0  0  0  0  0  0
  1  2  1  0  0  0
  2  3  2  0  0  0
  3  4  1  0  0  0
  4  5  2  0  0  0
  5  6  1  0  0  0
  6  7  1  0  0  0
  7  8  1  0  0  0
  8  9  1  0  0  0
  9 10  2  0  0  0
 10 11  1  0  0  0
 11 12  1  0  0  0
 12 13  1  0  0  0
 13 14  1  0  0  0
  5 15  1  0  0  0
 15 16  2  0  0  0
 16  2  1  0  0  0
 14  9  1  0  0  0
  6 17  1  0  0  0
  6 18  1  0  0  0
 15 19  1  0  0  0
M  END
>  <CHROM.0>
-59.88758699,179.25595040

>  <CHROM.1>
83.65130734,54.19846025,84.65242424,119.52619129,-1.28370261,28.41673896
3.43099988,-1.59176977,0.12060805,-0.49313850

>  <Name>
6a17202a-cc9c-4bc1-819d-b3f02a448f2b

>  <RI>
2.92099e+07

>  <Rbt.Current_Directory>
/data/work/jku/5V6S/work/40/8dba899c20c42488f2b1a17844994e

>  <Rbt.Executable>
rbdock ($Id: //depot/dev/client3/rdock/2013.1/src/exe/rbdock.cxx#4 $)

>  <Rbt.Library>
libRbt.so (2013.1, Build901 2013/11/27)

>  <Rbt.Parameter_File>
/rDock_2013.1_src/data/scripts/dock.prm

>  <Rbt.Receptor>
docking.prm

>  <SCORE>
-9.42681

>  <SCORE.INTER>
-9.76319

>  <SCORE.INTER.CONST>
1

>  <SCORE.INTER.POLAR>
0

>  <SCORE.INTER.REPUL>
0

>  <SCORE.INTER.ROT>
4

>  <SCORE.INTER.VDW>
-19.1632

>  <SCORE.INTER.norm>
-0.610199

>  <SCORE.INTRA>
0.607012

>  <SCORE.INTRA.DIHEDRAL>
1.34361

>  <SCORE.INTRA.DIHEDRAL.0>
1.49686

>  <SCORE.INTRA.POLAR>
0

>  <SCORE.INTRA.POLAR.0>
0

>  <SCORE.INTRA.REPUL>
0

>  <SCORE.INTRA.REPUL.0>
0

>  <SCORE.INTRA.VDW>
-0.0647919

>  <SCORE.INTRA.VDW.0>
-0.617976

>  <SCORE.INTRA.norm>
0.0379383

>  <SCORE.RESTR>
0

>  <SCORE.RESTR.CAVITY>
0

>  <SCORE.RESTR.norm>
0

>  <SCORE.SYSTEM>
-0.270632

>  <SCORE.SYSTEM.CONST>
0

>  <SCORE.SYSTEM.DIHEDRAL>
0.0103629

>  <SCORE.SYSTEM.VDW>
-0.275813

>  <SCORE.SYSTEM.norm>
-0.0169145

>  <SCORE.heavy>
16

>  <SCORE.norm>
-0.589175

>  <enum_code>
M

>  <enum_smi>
Clc1ccc([NH2+]CCC2=CCCCC2)[nH+]n1

>  <sha256>
6149034aeb29bd8fa0ec2e92d34f1bde0841ca524aca24497fa6898cc79b03a9

>  <std_smi>
Clc1ccc(NCCC2=CCCCC2)nn1

>  <uuid>
6a17202a-cc9c-4bc1-819d-b3f02a448f2b

$$$$
af8fe6c8-d6eb-4a3d-b648-d20ea01f2a00
  rDOCK(R)          3D
libRbt.so/2013.1/901 2013/11/27
 18 19  0  0  0  0  0  0  0  0999 V2000
   -7.5756   24.6063    4.2369 Cl  0  0  0  0  0  0
   -6.6698   25.9935    4.6575 C   0  0  0  0  0  0
   -7.1411   27.2616    4.4019 C   0  0  0  0  0  0
   -6.3597   28.3610    4.7620 C   0  0  0  0  0  0
   -5.1114   28.2074    5.3832 C   0  0  0  0  0  0
   -4.2881   29.2545    5.7356 N   0  0  0  0  0  0
   -3.8339   30.2382    4.7428 C   0  0  0  0  0  0
   -2.3463   30.0210    4.4102 C   0  0  0  0  0  0
   -1.7085   30.9330    3.3726 C   0  0  0  0  0  0
   -1.2348   30.5369    2.1744 C   0  0  0  0  0  0
   -0.5422   31.4507    1.1985 C   0  0  0  0  0  0
   -0.1386   32.7944    1.8022 C   0  0  0  0  0  0
   -1.2515   33.3514    2.6791 C   0  0  0  0  0  0
   -1.5944   32.3822    3.8123 C   0  0  0  0  0  0
   -4.6783   26.9537    5.5988 N   0  3  0  0  0  0
   -5.4875   25.7411    5.2326 N   0  0  0  0  0  0
   -4.3301   29.6359    6.6776 H   0  0  0  0  0  0
   -3.7600   26.8234    6.0163 H   0  0  0  0  0  0
  1  2  1  0  0  0
  2  3  2  0  0  0
  3  4  1  0  0  0
  4  5  2  0  0  0
  5  6  1  0  0  0
  6  7  1  0  0  0
  7  8  1  0  0  0
  8  9  1  0  0  0
  9 10  2  0  0  0
 10 11  1  0  0  0
 11 12  1  0  0  0
 12 13  1  0  0  0
 13 14  1  0  0  0
  5 15  1  0  0  0
 15 16  2  0  0  0
 16  2  1  0  0  0
 14  9  1  0  0  0
  6 17  1  0  0  0
 15 18  1  0  0  0
M  END
>  <CHROM.0>
-59.88758699,68.35841718

>  <CHROM.1>
-56.49881219,-106.89992056,178.68722576,-114.82739332,-4.05967152,28.85901857
4.04335331,-2.93006275,0.83782968,0.97114748

>  <Name>
af8fe6c8-d6eb-4a3d-b648-d20ea01f2a00

>  <RI>
1.94778e+07

>  <Rbt.Current_Directory>
/data/work/jku/5V6S/work/40/8dba899c20c42488f2b1a17844994e

>  <Rbt.Executable>
rbdock ($Id: //depot/dev/client3/rdock/2013.1/src/exe/rbdock.cxx#4 $)

>  <Rbt.Library>
libRbt.so (2013.1, Build901 2013/11/27)

>  <Rbt.Parameter_File>
/rDock_2013.1_src/data/scripts/dock.prm

>  <Rbt.Receptor>
docking.prm

>  <SCORE>
-11.6656

>  <SCORE.INTER>
-9.59184

>  <SCORE.INTER.CONST>
1

>  <SCORE.INTER.POLAR>
0

>  <SCORE.INTER.REPUL>
0

>  <SCORE.INTER.ROT>
4

>  <SCORE.INTER.VDW>
-18.9918

>  <SCORE.INTER.norm>
-0.59949

>  <SCORE.INTRA>
-0.561539

>  <SCORE.INTRA.DIHEDRAL>
0.739179

>  <SCORE.INTRA.DIHEDRAL.0>
1.77716

>  <SCORE.INTRA.POLAR>
0

>  <SCORE.INTRA.POLAR.0>
0

>  <SCORE.INTRA.REPUL>
0

>  <SCORE.INTRA.REPUL.0>
0

>  <SCORE.INTRA.VDW>
-0.931129

>  <SCORE.INTRA.VDW.0>
0.224156

>  <SCORE.INTRA.norm>
-0.0350962

>  <SCORE.RESTR>
0

>  <SCORE.RESTR.CAVITY>
0

>  <SCORE.RESTR.norm>
0

>  <SCORE.SYSTEM>
-1.51222

>  <SCORE.SYSTEM.CONST>
0

>  <SCORE.SYSTEM.DIHEDRAL>
0.346924

>  <SCORE.SYSTEM.POLAR>
-0.502426

>  <SCORE.SYSTEM.VDW>
0.0225635

>  <SCORE.SYSTEM.norm>
-0.094514

>  <SCORE.heavy>
16

>  <SCORE.norm>
-0.7291

>  <enum_code>
M

>  <enum_smi>
Clc1ccc(NCCC2=CCCCC2)[nH+]n1

>  <sha256>
6149034aeb29bd8fa0ec2e92d34f1bde0841ca524aca24497fa6898cc79b03a9

>  <std_smi>
Clc1ccc(NCCC2=CCCCC2)nn1

>  <uuid>
af8fe6c8-d6eb-4a3d-b648-d20ea01f2a00

$$$$
af8fe6c8-d6eb-4a3d-b648-d20ea01f2a00
  rDOCK(R)          3D
libRbt.so/2013.1/901 2013/11/27
 18 19  0  0  0  0  0  0  0  0999 V2000
    0.7576   32.2563   -0.1380 Cl  0  0  0  0  0  0
   -0.1046   32.2430    1.3379 C   0  0  0  0  0  0
    0.0405   33.2536    2.2616 C   0  0  0  0  0  0
   -0.6841   33.1925    3.4534 C   0  0  0  0  0  0
   -1.5606   32.1329    3.7305 C   0  0  0  0  0  0
   -2.2795   32.0086    4.8993 N   0  0  0  0  0  0
   -1.8694   31.0706    5.9536 C   0  0  0  0  0  0
   -2.0470   29.6163    5.4803 C   0  0  0  0  0  0
   -3.4639   29.0746    5.3613 C   0  0  0  0  0  0
   -4.5824   29.7354    5.7212 C   0  0  0  0  0  0
   -5.9661   29.1449    5.6598 C   0  0  0  0  0  0
   -5.9748   27.6315    5.4536 C   0  0  0  0  0  0
   -4.9453   27.2202    4.4101 C   0  0  0  0  0  0
   -3.5386   27.6555    4.8257 C   0  0  0  0  0  0
   -1.6605   31.1570    2.8122 N   0  3  0  0  0  0
   -0.9039   31.1836    1.5137 N   0  0  0  0  0  0
   -2.7990   32.8050    5.2607 H   0  0  0  0  0  0
   -2.2648   30.3635    3.0122 H   0  0  0  0  0  0
  1  2  1  0  0  0
  2  3  2  0  0  0
  3  4  1  0  0  0
  4  5  2  0  0  0
  5  6  1  0  0  0
  6  7  1  0  0  0
  7  8  1  0  0  0
  8  9  1  0  0  0
  9 10  2  0  0  0
 10 11  1  0  0  0
 11 12  1  0  0  0
 12 13  1  0  0  0
 13 14  1  0  0  0
  5 15  1  0  0  0
 15 16  2  0  0  0
 16  2  1  0  0  0
 14  9  1  0  0  0
  6 17  1  0  0  0
 15 18  1  0  0  0
M  END
>  <CHROM.0>
-59.88758699,69.14741266

>  <CHROM.1>
-102.84794546,-68.14341708,-72.24582082,-4.63843577,-2.16623443,30.66417913
3.57141914,0.18185312,-0.85795931,-2.16717085

>  <Name>
af8fe6c8-d6eb-4a3d-b648-d20ea01f2a00

>  <RI>
1.94778e+07

>  <Rbt.Current_Directory>
/data/work/jku/5V6S/work/40/8dba899c20c42488f2b1a17844994e

>  <Rbt.Executable>
rbdock ($Id: //depot/dev/client3/rdock/2013.1/src/exe/rbdock.cxx#4 $)

>  <Rbt.Library>
libRbt.so (2013.1, Build901 2013/11/27)

>  <Rbt.Parameter_File>
/rDock_2013.1_src/data/scripts/dock.prm

>  <Rbt.Receptor>
docking.prm

>  <SCORE>
-15.3139

>  <SCORE.INTER>
-12.8482

>  <SCORE.INTER.CONST>
1

>  <SCORE.INTER.POLAR>
-0.758034

>  <SCORE.INTER.REPUL>
0.036422

>  <SCORE.INTER.ROT>
4

>  <SCORE.INTER.VDW>
-19.853

>  <SCORE.INTER.norm>
-0.803012

>  <SCORE.INTRA>
-0.952285

>  <SCORE.INTRA.DIHEDRAL>
0.27424

>  <SCORE.INTRA.DIHEDRAL.0>
1.77716

>  <SCORE.INTRA.POLAR>
0

>  <SCORE.INTRA.POLAR.0>
0

>  <SCORE.INTRA.REPUL>
0

>  <SCORE.INTRA.REPUL.0>
0

>  <SCORE.INTRA.VDW>
-1.08941

>  <SCORE.INTRA.VDW.0>
0.224156

>  <SCORE.INTRA.norm>
-0.0595178

>  <SCORE.RESTR>
0

>  <SCORE.RESTR.CAVITY>
0

>  <SCORE.RESTR.norm>
0

>  <SCORE.SYSTEM>
-1.5134

>  <SCORE.SYSTEM.CONST>
0

>  <SCORE.SYSTEM.DIHEDRAL>
0.412718

>  <SCORE.SYSTEM.POLAR>
-0.503067

>  <SCORE.SYSTEM.VDW>
-0.00933273

>  <SCORE.SYSTEM.norm>
-0.0945876

>  <SCORE.heavy>
16

>  <SCORE.norm>
-0.957117

>  <enum_code>
M

>  <enum_smi>
Clc1ccc(NCCC2=CCCCC2)[nH+]n1

>  <sha256>
6149034aeb29bd8fa0ec2e92d34f1bde0841ca524aca24497fa6898cc79b03a9

>  <std_smi>
Clc1ccc(NCCC2=CCCCC2)nn1

>  <uuid>
af8fe6c8-d6eb-4a3d-b648-d20ea01f2a00

$$$$
af8fe6c8-d6eb-4a3d-b648-d20ea01f2a00
  rDOCK(R)          3D
libRbt.so/2013.1/901 2013/11/27
 18 19  0  0  0  0  0  0  0  0999 V2000
   -8.2546   26.8612    4.0051 Cl  0  0  0  0  0  0
   -6.5945   27.1582    4.2839 C   0  0  0  0  0  0
   -5.6189   26.4897    3.5791 C   0  0  0  0  0  0
   -4.2773   26.7667    3.8484 C   0  0  0  0  0  0
   -3.8983   27.7128    4.8124 C   0  0  0  0  0  0
   -2.5918   28.0063    5.1369 N   0  0  0  0  0  0
   -1.9370   29.2265    4.6450 C   0  0  0  0  0  0
   -2.1903   29.4038    3.1367 C   0  0  0  0  0  0
   -1.4913   30.5547    2.4281 C   0  0  0  0  0  0
   -0.7047   30.4357    1.3398 C   0  0  0  0  0  0
    0.0330   31.5841    0.7041 C   0  0  0  0  0  0
    0.0709   32.8400    1.5725 C   0  0  0  0  0  0
   -1.2842   33.0946    2.2180 C   0  0  0  0  0  0
   -1.7118   31.9071    3.0829 C   0  0  0  0  0  0
   -4.8795   28.3303    5.4917 N   0  3  0  0  0  0
   -6.3365   28.0675    5.2319 N   0  0  0  0  0  0
   -2.2038   27.6787    6.0181 H   0  0  0  0  0  0
   -4.6223   28.9936    6.2188 H   0  0  0  0  0  0
  1  2  1  0  0  0
  2  3  2  0  0  0
  3  4  1  0  0  0
  4  5  2  0  0  0
  5  6  1  0  0  0
  6  7  1  0  0  0
  7  8  1  0  0  0
  8  9  1  0  0  0
  9 10  2  0  0  0
 10 11  1  0  0  0
 11 12  1  0  0  0
 12 13  1  0  0  0
 13 14  1  0  0  0
  5 15  1  0  0  0
 15 16  2  0  0  0
 16  2  1  0  0  0
 14  9  1  0  0  0
  6 17  1  0  0  0
 15 18  1  0  0  0
M  END
>  <CHROM.0>
-59.88758699,68.68939371

>  <CHROM.1>
102.91802698,-47.09015095,-175.03424827,125.06655398,-3.65813393,29.09074083
3.53724178,2.47993148,0.27368222,2.33068869

>  <Name>
af8fe6c8-d6eb-4a3d-b648-d20ea01f2a00

>  <RI>
1.94778e+07

>  <Rbt.Current_Directory>
/data/work/jku/5V6S/work/40/8dba899c20c42488f2b1a17844994e

>  <Rbt.Executable>
rbdock ($Id: //depot/dev/client3/rdock/2013.1/src/exe/rbdock.cxx#4 $)

>  <Rbt.Library>
libRbt.so (2013.1, Build901 2013/11/27)

>  <Rbt.Parameter_File>
/rDock_2013.1_src/data/scripts/dock.prm

>  <Rbt.Receptor>
docking.prm

>  <SCORE>
-12.3599

>  <SCORE.INTER>
-10.0487

>  <SCORE.INTER.CONST>
1

>  <SCORE.INTER.POLAR>
0

>  <SCORE.INTER.REPUL>
0

>  <SCORE.INTER.ROT>
4

>  <SCORE.INTER.VDW>
-19.4487

>  <SCORE.INTER.norm>
-0.628042

>  <SCORE.INTRA>
-0.797747

>  <SCORE.INTRA.DIHEDRAL>
-0.716011

>  <SCORE.INTRA.DIHEDRAL.0>
1.77716

>  <SCORE.INTRA.POLAR>
0

>  <SCORE.INTRA.POLAR.0>
0

>  <SCORE.INTRA.REPUL>
0

>  <SCORE.INTRA.REPUL.0>
0

>  <SCORE.INTRA.VDW>
-0.439741

>  <SCORE.INTRA.VDW.0>
0.224156

>  <SCORE.INTRA.norm>
-0.0498592

>  <SCORE.RESTR>
0

>  <SCORE.RESTR.CAVITY>
0

>  <SCORE.RESTR.norm>
0

>  <SCORE.SYSTEM>
-1.51344

>  <SCORE.SYSTEM.CONST>
0

>  <SCORE.SYSTEM.DIHEDRAL>
0.373853

>  <SCORE.SYSTEM.POLAR>
-0.502757

>  <SCORE.SYSTEM.VDW>
0.00900845

>  <SCORE.SYSTEM.norm>
-0.0945899

>  <SCORE.heavy>
16

>  <SCORE.norm>
-0.772491

>  <enum_code>
M

>  <enum_smi>
Clc1ccc(NCCC2=CCCCC2)[nH+]n1

>  <sha256>
6149034aeb29bd8fa0ec2e92d34f1bde0841ca524aca24497fa6898cc79b03a9

>  <std_smi>
Clc1ccc(NCCC2=CCCCC2)nn1

>  <uuid>
af8fe6c8-d6eb-4a3d-b648-d20ea01f2a00

$$$$
af8fe6c8-d6eb-4a3d-b648-d20ea01f2a00
  rDOCK(R)          3D
libRbt.so/2013.1/901 2013/11/27
 18 19  0  0  0  0  0  0  0  0999 V2000
    1.0109   33.1060   -0.5800 Cl  0  0  0  0  0  0
    0.0402   32.8158    0.7968 C   0  0  0  0  0  0
   -1.1257   32.0887    0.7110 C   0  0  0  0  0  0
   -1.8839   31.8841    1.8652 C   0  0  0  0  0  0
   -1.4853   32.3935    3.1100 C   0  0  0  0  0  0
   -2.2068   32.2445    4.2742 N   0  0  0  0  0  0
   -2.0987   31.0274    5.0909 C   0  0  0  0  0  0
   -2.0674   29.7769    4.1932 C   0  0  0  0  0  0
   -1.8175   28.4306    4.8568 C   0  0  0  0  0  0
   -1.8141   28.2070    6.1861 C   0  0  0  0  0  0
   -1.4910   26.8780    6.8159 C   0  0  0  0  0  0
   -0.8617   25.8803    5.8456 C   0  0  0  0  0  0
   -1.5721   25.9107    4.4994 C   0  0  0  0  0  0
   -1.5140   27.3084    3.8797 C   0  0  0  0  0  0
   -0.3513   33.1133    3.1488 N   0  3  0  0  0  0
    0.4991   33.3547    1.9331 N   0  0  0  0  0  0
   -2.4606   33.0642    4.8204 H   0  0  0  0  0  0
   -0.0656   33.5199    4.0364 H   0  0  0  0  0  0
  1  2  1  0  0  0
  2  3  2  0  0  0
  3  4  1  0  0  0
  4  5  2  0  0  0
  5  6  1  0  0  0
  6  7  1  0  0  0
  7  8  1  0  0  0
  8  9  1  0  0  0
  9 10  2  0  0  0
 10 11  1  0  0  0
 11 12  1  0  0  0
 12 13  1  0  0  0
 13 14  1  0  0  0
  5 15  1  0  0  0
 15 16  2  0  0  0
 16  2  1  0  0  0
 14  9  1  0  0  0
  6 17  1  0  0  0
 15 18  1  0  0  0
M  END
>  <CHROM.0>
-59.88758699,-179.83322390

>  <CHROM.1>
83.56074779,-41.62746747,173.98233082,10.29269466,-0.97286484,30.52556737
3.20058332,-1.08566270,-1.06791232,2.88341582

>  <Name>
af8fe6c8-d6eb-4a3d-b648-d20ea01f2a00

>  <RI>
1.94778e+07

>  <Rbt.Current_Directory>
/data/work/jku/5V6S/work/40/8dba899c20c42488f2b1a17844994e

>  <Rbt.Executable>
rbdock ($Id: //depot/dev/client3/rdock/2013.1/src/exe/rbdock.cxx#4 $)

>  <Rbt.Library>
libRbt.so (2013.1, Build901 2013/11/27)

>  <Rbt.Parameter_File>
/rDock_2013.1_src/data/scripts/dock.prm

>  <Rbt.Receptor>
docking.prm

>  <SCORE>
-16.0525

>  <SCORE.INTER>
-15.4475

>  <SCORE.INTER.CONST>
1

>  <SCORE.INTER.POLAR>
-0.894427

>  <SCORE.INTER.REPUL>
0

>  <SCORE.INTER.ROT>
4

>  <SCORE.INTER.VDW>
-21.8064

>  <SCORE.INTER.norm>
-0.965468

>  <SCORE.INTRA>
-0.333338

>  <SCORE.INTRA.DIHEDRAL>
-0.537767

>  <SCORE.INTRA.DIHEDRAL.0>
1.77716

>  <SCORE.INTRA.POLAR>
0

>  <SCORE.INTRA.POLAR.0>
0

>  <SCORE.INTRA.REPUL>
0

>  <SCORE.INTRA.REPUL.0>
0

>  <SCORE.INTRA.VDW>
-0.0644542

>  <SCORE.INTRA.VDW.0>
0.224156

>  <SCORE.INTRA.norm>
-0.0208336

>  <SCORE.RESTR>
0

>  <SCORE.RESTR.CAVITY>
0

>  <SCORE.RESTR.norm>
0

>  <SCORE.SYSTEM>
-0.271677

>  <SCORE.SYSTEM.CONST>
0

>  <SCORE.SYSTEM.DIHEDRAL>
0.00776854

>  <SCORE.SYSTEM.VDW>
-0.275561

>  <SCORE.SYSTEM.norm>
-0.0169798

>  <SCORE.heavy>
16

>  <SCORE.norm>
-1.00328

>  <enum_code>
M

>  <enum_smi>
Clc1ccc(NCCC2=CCCCC2)[nH+]n1

>  <sha256>
6149034aeb29bd8fa0ec2e92d34f1bde0841ca524aca24497fa6898cc79b03a9

>  <std_smi>
Clc1ccc(NCCC2=CCCCC2)nn1

>  <uuid>
af8fe6c8-d6eb-4a3d-b648-d20ea01f2a00

$$$$
af8fe6c8-d6eb-4a3d-b648-d20ea01f2a00
  rDOCK(R)          3D
libRbt.so/2013.1/901 2013/11/27
 18 19  0  0  0  0  0  0  0  0999 V2000
    0.7033   32.7485    0.2498 Cl  0  0  0  0  0  0
   -0.3199   32.3420    1.5573 C   0  0  0  0  0  0
   -1.0179   31.1555    1.5790 C   0  0  0  0  0  0
   -1.8433   30.8738    2.6691 C   0  0  0  0  0  0
   -1.9742   31.7643    3.7451 C   0  0  0  0  0  0
   -2.7931   31.5497    4.8321 N   0  0  0  0  0  0
   -2.2756   30.9622    6.0758 C   0  0  0  0  0  0
   -2.1552   29.4332    5.9405 C   0  0  0  0  0  0
   -3.4189   28.6445    5.6307 C   0  0  0  0  0  0
   -4.6723   29.1399    5.6602 C   0  0  0  0  0  0
   -5.9095   28.3160    5.4202 C   0  0  0  0  0  0
   -5.6546   26.8103    5.4488 C   0  0  0  0  0  0
   -4.3746   26.4624    4.7015 C   0  0  0  0  0  0
   -3.1698   27.1805    5.3129 C   0  0  0  0  0  0
   -1.2912   32.9196    3.6779 N   0  3  0  0  0  0
   -0.3874   33.2626    2.5269 N   0  0  0  0  0  0
   -3.5975   32.1528    4.9861 H   0  0  0  0  0  0
   -1.4017   33.5924    4.4328 H   0  0  0  0  0  0
  1  2  1  0  0  0
  2  3  2  0  0  0
  3  4  1  0  0  0
  4  5  2  0  0  0
  5  6  1  0  0  0
  6  7  1  0  0  0
  7  8  1  0  0  0
  8  9  1  0  0  0
  9 10  2  0  0  0
 10 11  1  0  0  0
 11 12  1  0  0  0
 12 13  1  0  0  0
 13 14  1  0  0  0
  5 15  1  0  0  0
 15 16  2  0  0  0
 16  2  1  0  0  0
 14  9  1  0  0  0
  6 17  1  0  0  0
 15 18  1  0  0  0
M  END
>  <CHROM.0>
-59.88758699,-178.12695316

>  <CHROM.1>
95.68937516,-79.66731309,-59.40845765,-10.53321486,-2.26027906,30.45156876
3.74772673,-0.05672584,-0.95527168,-2.35515428

>  <Name>
af8fe6c8-d6eb-4a3d-b648-d20ea01f2a00

>  <RI>
1.94778e+07

>  <Rbt.Current_Directory>
/data/work/jku/5V6S/work/40/8dba899c20c42488f2b1a17844994e

>  <Rbt.Executable>
rbdock ($Id: //depot/dev/client3/rdock/2013.1/src/exe/rbdock.cxx#4 $)

>  <Rbt.Library>
libRbt.so (2013.1, Build901 2013/11/27)

>  <Rbt.Parameter_File>
/rDock_2013.1_src/data/scripts/dock.prm

>  <Rbt.Receptor>
docking.prm

>  <SCORE>
-16.9692

>  <SCORE.INTER>
-15.4435

>  <SCORE.INTER.CONST>
1

>  <SCORE.INTER.POLAR>
-1.34084

>  <SCORE.INTER.REPUL>
0

>  <SCORE.INTER.ROT>
4

>  <SCORE.INTER.VDW>
-20.2847

>  <SCORE.INTER.norm>
-0.965222

>  <SCORE.INTRA>
-1.26286

>  <SCORE.INTRA.DIHEDRAL>
0.302343

>  <SCORE.INTRA.DIHEDRAL.0>
1.77716

>  <SCORE.INTRA.POLAR>
0

>  <SCORE.INTRA.POLAR.0>
0

>  <SCORE.INTRA.REPUL>
0

>  <SCORE.INTRA.REPUL.0>
0

>  <SCORE.INTRA.VDW>
-1.41403

>  <SCORE.INTRA.VDW.0>
0.224156

>  <SCORE.INTRA.norm>
-0.0789285

>  <SCORE.RESTR>
0

>  <SCORE.RESTR.CAVITY>
0

>  <SCORE.RESTR.norm>
0

>  <SCORE.SYSTEM>
-0.2628

>  <SCORE.SYSTEM.CONST>
0

>  <SCORE.SYSTEM.DIHEDRAL>
0.0249302

>  <SCORE.SYSTEM.VDW>
-0.275265

>  <SCORE.SYSTEM.norm>
-0.016425

>  <SCORE.heavy>
16

>  <SCORE.norm>
-1.06058

>  <enum_code>
M

>  <enum_smi>
Clc1ccc(NCCC2=CCCCC2)[nH+]n1

>  <sha256>
6149034aeb29bd8fa0ec2e92d34f1bde0841ca524aca24497fa6898cc79b03a9

>  <std_smi>
Clc1ccc(NCCC2=CCCCC2)nn1

>  <uuid>
af8fe6c8-d6eb-4a3d-b648-d20ea01f2a00

$$$$
2cdd3fce-2c3d-4fc9-809c-22718798f2c8
  rDOCK(R)          3D
libRbt.so/2013.1/901 2013/11/27
 19 20  0  0  0  0  0  0  0  0999 V2000
    0.4546   33.2324    0.5722 Cl  0  0  0  0  0  0
   -0.6401   32.4734    1.6399 C   0  0  0  0  0  0
   -0.9418   31.1249    1.5334 C   0  0  0  0  0  0
   -1.8478   30.5271    2.4199 C   0  0  0  0  0  0
   -2.4693   31.2405    3.4573 C   0  0  0  0  0  0
   -3.4088   30.6206    4.2543 N   0  0  0  0  0  0
   -3.3396   30.5081    5.7166 C   0  0  0  0  0  0
   -2.0314   29.8358    6.1620 C   0  0  0  0  0  0
   -1.7937   28.4182    5.6928 C   0  0  0  0  0  0
   -1.8155   28.0093    4.4094 C   0  0  0  0  0  0
   -1.5050   26.6011    3.9681 C   0  0  0  0  0  0
   -0.8518   25.7514    5.0550 C   0  0  0  0  0  0
   -1.5375   25.9687    6.3957 C   0  0  0  0  0  0
   -1.4744   27.4393    6.8115 C   0  0  0  0  0  0
   -2.1996   32.5546    3.5499 N   0  3  0  0  0  0
   -1.2250   33.2033    2.5925 N   0  3  0  0  0  0
   -3.8546   29.7945    3.8380 H   0  0  0  0  0  0
   -2.6757   33.0986    4.2700 H   0  0  0  0  0  0
   -0.9923   34.1990    2.6326 H   0  0  0  0  0  0
  1  2  1  0  0  0
  2  3  2  0  0  0
  3  4  1  0  0  0
  4  5  2  0  0  0
  5  6  1  0  0  0
  6  7  1  0  0  0
  7  8  1  0  0  0
  8  9  1  0  0  0
  9 10  2  0  0  0
 10 11  1  0  0  0
 11 12  1  0  0  0
 12 13  1  0  0  0
 13 14  1  0  0  0
  5 15  1  0  0  0
 15 16  2  0  0  0
 16  2  1  0  0  0
 14  9  1  0  0  0
  6 17  1  0  0  0
 15 18  1  0  0  0
 16 19  1  0  0  0
M  END
>  <CHROM.0>
-59.88758699,69.17915219

>  <CHROM.1>
123.20804259,-56.02403842,-61.65704708,54.79360013,-1.48767334,30.15589900
3.72746407,-1.31028151,-0.86655751,2.69979780

>  <Name>
2cdd3fce-2c3d-4fc9-809c-22718798f2c8

>  <RI>
1.69014e+07

>  <Rbt.Current_Directory>
/data/work/jku/5V6S/work/40/8dba899c20c42488f2b1a17844994e

>  <Rbt.Executable>
rbdock ($Id: //depot/dev/client3/rdock/2013.1/src/exe/rbdock.cxx#4 $)

>  <Rbt.Library>
libRbt.so (2013.1, Build901 2013/11/27)

>  <Rbt.Parameter_File>
/rDock_2013.1_src/data/scripts/dock.prm

>  <Rbt.Receptor>
docking.prm

>  <SCORE>
-15.1557

>  <SCORE.INTER>
-13.3574

>  <SCORE.INTER.CONST>
1

>  <SCORE.INTER.POLAR>
-1.56557

>  <SCORE.INTER.REPUL>
0

>  <SCORE.INTER.ROT>
4

>  <SCORE.INTER.VDW>
-17.4345

>  <SCORE.INTER.norm>
-0.834839

>  <SCORE.INTRA>
-0.293737

>  <SCORE.INTRA.DIHEDRAL>
2.40268

>  <SCORE.INTRA.DIHEDRAL.0>
1.29501

>  <SCORE.INTRA.POLAR>
0

>  <SCORE.INTRA.POLAR.0>
0

>  <SCORE.INTRA.REPUL>
0

>  <SCORE.INTRA.REPUL.0>
0

>  <SCORE.INTRA.VDW>
-1.49508

>  <SCORE.INTRA.VDW.0>
-0.0478753

>  <SCORE.INTRA.norm>
-0.0183586

>  <SCORE.RESTR>
0.00881178

>  <SCORE.RESTR.CAVITY>
0.00881178

>  <SCORE.RESTR.norm>
0.000550737

>  <SCORE.SYSTEM>
-1.51333

>  <SCORE.SYSTEM.CONST>
0

>  <SCORE.SYSTEM.DIHEDRAL>
0.41548

>  <SCORE.SYSTEM.POLAR>
-0.503082

>  <SCORE.SYSTEM.VDW>
-0.010586

>  <SCORE.SYSTEM.norm>
-0.0945829

>  <SCORE.heavy>
16

>  <SCORE.norm>
-0.947229

>  <enum_code>
M

>  <enum_smi>
Clc1ccc(NCCC2=CCCCC2)[nH+][nH+]1

>  <sha256>
6149034aeb29bd8fa0ec2e92d34f1bde0841ca524aca24497fa6898cc79b03a9

>  <std_smi>
Clc1ccc(NCCC2=CCCCC2)nn1

>  <uuid>
2cdd3fce-2c3d-4fc9-809c-22718798f2c8

$$$$
2cdd3fce-2c3d-4fc9-809c-22718798f2c8
  rDOCK(R)          3D
libRbt.so/2013.1/901 2013/11/27
 19 20  0  0  0  0  0  0  0  0999 V2000
    1.3054   32.1019    0.6072 Cl  0  0  0  0  0  0
   -0.1551   32.5404    1.3747 C   0  0  0  0  0  0
   -1.3735   32.4569    0.7194 C   0  0  0  0  0  0
   -2.5577   32.8277    1.3707 C   0  0  0  0  0  0
   -2.5779   33.2730    2.7022 C   0  0  0  0  0  0
   -3.7615   33.6956    3.2702 N   0  0  0  0  0  0
   -4.4414   33.0453    4.3975 C   0  0  0  0  0  0
   -4.8283   31.5981    4.0544 C   0  0  0  0  0  0
   -3.7165   30.6798    3.5994 C   0  0  0  0  0  0
   -2.5966   30.4085    4.2973 C   0  0  0  0  0  0
   -1.5385   29.4330    3.8469 C   0  0  0  0  0  0
   -1.9856   28.5370    2.6948 C   0  0  0  0  0  0
   -2.7400   29.3412    1.6464 C   0  0  0  0  0  0
   -3.9698   30.0171    2.2546 C   0  0  0  0  0  0
   -1.3961   33.3798    3.3347 N   0  3  0  0  0  0
   -0.1161   32.9838    2.6333 N   0  3  0  0  0  0
   -4.4370   34.1041    2.6136 H   0  0  0  0  0  0
   -1.3866   33.7434    4.2880 H   0  0  0  0  0  0
    0.8014   33.0484    3.0816 H   0  0  0  0  0  0
  1  2  1  0  0  0
  2  3  2  0  0  0
  3  4  1  0  0  0
  4  5  2  0  0  0
  5  6  1  0  0  0
  6  7  1  0  0  0
  7  8  1  0  0  0
  8  9  1  0  0  0
  9 10  2  0  0  0
 10 11  1  0  0  0
 11 12  1  0  0  0
 12 13  1  0  0  0
 13 14  1  0  0  0
  5 15  1  0  0  0
 15 16  2  0  0  0
 16  2  1  0  0  0
 14  9  1  0  0  0
  6 17  1  0  0  0
 15 18  1  0  0  0
 16 19  1  0  0  0
M  END
>  <CHROM.0>
-59.88758699,68.37841166

>  <CHROM.1>
115.58822913,-60.56833717,55.78567683,56.87013121,-1.95485612,31.69410933
2.50837227,-0.19254734,-0.52885184,-3.12255269

>  <Name>
2cdd3fce-2c3d-4fc9-809c-22718798f2c8

>  <RI>
1.69014e+07

>  <Rbt.Current_Directory>
/data/work/jku/5V6S/work/40/8dba899c20c42488f2b1a17844994e

>  <Rbt.Executable>
rbdock ($Id: //depot/dev/client3/rdock/2013.1/src/exe/rbdock.cxx#4 $)

>  <Rbt.Library>
libRbt.so (2013.1, Build901 2013/11/27)

>  <Rbt.Parameter_File>
/rDock_2013.1_src/data/scripts/dock.prm

>  <Rbt.Receptor>
docking.prm

>  <SCORE>
-14.4032

>  <SCORE.INTER>
-11.247

>  <SCORE.INTER.CONST>
1

>  <SCORE.INTER.POLAR>
-1.29196

>  <SCORE.INTER.REPUL>
0.0404457

>  <SCORE.INTER.ROT>
4

>  <SCORE.INTER.VDW>
-16.4565

>  <SCORE.INTER.norm>
-0.702934

>  <SCORE.INTRA>
-2.08266

>  <SCORE.INTRA.DIHEDRAL>
2.32687

>  <SCORE.INTRA.DIHEDRAL.0>
1.29501

>  <SCORE.INTRA.POLAR>
0

>  <SCORE.INTRA.POLAR.0>
0

>  <SCORE.INTRA.REPUL>
0

>  <SCORE.INTRA.REPUL.0>
0

>  <SCORE.INTRA.VDW>
-3.24609

>  <SCORE.INTRA.VDW.0>
-0.0478753

>  <SCORE.INTRA.norm>
-0.130166

>  <SCORE.RESTR>
0.438712

>  <SCORE.RESTR.CAVITY>
0.438712

>  <SCORE.RESTR.norm>
0.0274195

>  <SCORE.SYSTEM>
-1.51233

>  <SCORE.SYSTEM.CONST>
0

>  <SCORE.SYSTEM.DIHEDRAL>
0.348523

>  <SCORE.SYSTEM.POLAR>
-0.502449

>  <SCORE.SYSTEM.VDW>
0.0217374

>  <SCORE.SYSTEM.norm>
-0.0945205

>  <SCORE.heavy>
16

>  <SCORE.norm>
-0.900202

>  <enum_code>
M

>  <enum_smi>
Clc1ccc(NCCC2=CCCCC2)[nH+][nH+]1

>  <sha256>
6149034aeb29bd8fa0ec2e92d34f1bde0841ca524aca24497fa6898cc79b03a9

>  <std_smi>
Clc1ccc(NCCC2=CCCCC2)nn1

>  <uuid>
2cdd3fce-2c3d-4fc9-809c-22718798f2c8

$$$$
2cdd3fce-2c3d-4fc9-809c-22718798f2c8
  rDOCK(R)          3D
libRbt.so/2013.1/901 2013/11/27
 19 20  0  0  0  0  0  0  0  0999 V2000
   -8.1019   26.3988    3.6613 Cl  0  0  0  0  0  0
   -6.5592   26.9492    4.1427 C   0  0  0  0  0  0
   -6.3973   27.8063    5.2198 C   0  0  0  0  0  0
   -5.1200   28.2473    5.5915 C   0  0  0  0  0  0
   -3.9563   27.8358    4.9222 C   0  0  0  0  0  0
   -2.7320   28.3586    5.2827 N   0  0  0  0  0  0
   -1.8160   29.0717    4.3838 C   0  0  0  0  0  0
   -2.4459   30.3743    3.8658 C   0  0  0  0  0  0
   -1.6215   31.2008    2.9048 C   0  0  0  0  0  0
   -1.1349   32.4315    3.1564 C   0  0  0  0  0  0
   -0.2564   33.2015    2.2028 C   0  0  0  0  0  0
    0.3029   32.3501    1.0659 C   0  0  0  0  0  0
   -0.7704   31.4319    0.5003 C   0  0  0  0  0  0
   -1.3275   30.5075    1.5840 C   0  0  0  0  0  0
   -4.1094   27.0241    3.8611 N   0  3  0  0  0  0
   -5.4868   26.5495    3.4554 N   0  3  0  0  0  0
   -2.2164   27.8136    5.9838 H   0  0  0  0  0  0
   -3.2789   26.7500    3.3355 H   0  0  0  0  0  0
   -5.6437   25.9300    2.6562 H   0  0  0  0  0  0
  1  2  1  0  0  0
  2  3  2  0  0  0
  3  4  1  0  0  0
  4  5  2  0  0  0
  5  6  1  0  0  0
  6  7  1  0  0  0
  7  8  1  0  0  0
  8  9  1  0  0  0
  9 10  2  0  0  0
 10 11  1  0  0  0
 11 12  1  0  0  0
 12 13  1  0  0  0
 13 14  1  0  0  0
  5 15  1  0  0  0
 15 16  2  0  0  0
 16  2  1  0  0  0
 14  9  1  0  0  0
  6 17  1  0  0  0
 15 18  1  0  0  0
 16 19  1  0  0  0
M  END
>  <CHROM.0>
-59.88758699,68.43260928

>  <CHROM.1>
-122.29440782,63.44348114,-178.83837502,-114.45475894,-3.62961073,29.07866038
3.48182985,2.67859382,0.59178971,1.90226363

>  <Name>
2cdd3fce-2c3d-4fc9-809c-22718798f2c8

>  <RI>
1.69014e+07

>  <Rbt.Current_Directory>
/data/work/jku/5V6S/work/40/8dba899c20c42488f2b1a17844994e

>  <Rbt.Executable>
rbdock ($Id: //depot/dev/client3/rdock/2013.1/src/exe/rbdock.cxx#4 $)

>  <Rbt.Library>
libRbt.so (2013.1, Build901 2013/11/27)

>  <Rbt.Parameter_File>
/rDock_2013.1_src/data/scripts/dock.prm

>  <Rbt.Receptor>
docking.prm

>  <SCORE>
-12.401

>  <SCORE.INTER>
-9.9811

>  <SCORE.INTER.CONST>
1

>  <SCORE.INTER.POLAR>
0

>  <SCORE.INTER.REPUL>
0

>  <SCORE.INTER.ROT>
4

>  <SCORE.INTER.VDW>
-19.3811

>  <SCORE.INTER.norm>
-0.623819

>  <SCORE.INTRA>
-0.907342

>  <SCORE.INTRA.DIHEDRAL>
-0.216742

>  <SCORE.INTRA.DIHEDRAL.0>
1.29501

>  <SCORE.INTRA.POLAR>
0

>  <SCORE.INTRA.POLAR.0>
0

>  <SCORE.INTRA.REPUL>
0

>  <SCORE.INTRA.REPUL.0>
0

>  <SCORE.INTRA.VDW>
-0.798971

>  <SCORE.INTRA.VDW.0>
-0.0478753

>  <SCORE.INTRA.norm>
-0.0567089

>  <SCORE.RESTR>
0

>  <SCORE.RESTR.CAVITY>
0

>  <SCORE.RESTR.norm>
0

>  <SCORE.SYSTEM>
-1.51259

>  <SCORE.SYSTEM.CONST>
0

>  <SCORE.SYSTEM.DIHEDRAL>
0.352876

>  <SCORE.SYSTEM.POLAR>
-0.502508

>  <SCORE.SYSTEM.VDW>
0.0195028

>  <SCORE.SYSTEM.norm>
-0.0945367

>  <SCORE.heavy>
16

>  <SCORE.norm>
-0.775064

>  <enum_code>
M

>  <enum_smi>
Clc1ccc(NCCC2=CCCCC2)[nH+][nH+]1

>  <sha256>
6149034aeb29bd8fa0ec2e92d34f1bde0841ca524aca24497fa6898cc79b03a9

>  <std_smi>
Clc1ccc(NCCC2=CCCCC2)nn1

>  <uuid>
2cdd3fce-2c3d-4fc9-809c-22718798f2c8

$$$$
2cdd3fce-2c3d-4fc9-809c-22718798f2c8
  rDOCK(R)          3D
libRbt.so/2013.1/901 2013/11/27
 19 20  0  0  0  0  0  0  0  0999 V2000
   -1.5325   33.6108    2.8562 Cl  0  0  0  0  0  0
   -1.6042   32.0746    3.5974 C   0  0  0  0  0  0
   -1.4635   30.9070    2.8640 C   0  0  0  0  0  0
   -1.5311   29.6580    3.4961 C   0  0  0  0  0  0
   -1.7181   29.5235    4.8813 C   0  0  0  0  0  0
   -1.8513   28.2700    5.4407 N   0  0  0  0  0  0
   -1.8392   27.0036    4.6978 C   0  0  0  0  0  0
   -1.5265   25.8177    5.6239 C   0  0  0  0  0  0
   -1.4122   24.4549    4.9792 C   0  0  0  0  0  0
   -2.3800   23.5179    4.9632 C   0  0  0  0  0  0
   -2.2599   22.1942    4.2507 C   0  0  0  0  0  0
   -1.0829   22.1281    3.2810 C   0  0  0  0  0  0
    0.1618   22.7472    3.8992 C   0  0  0  0  0  0
   -0.0844   24.2077    4.2809 C   0  0  0  0  0  0
   -1.8801   30.6521    5.5941 N   0  3  0  0  0  0
   -1.8112   32.0012    4.9142 N   0  3  0  0  0  0
   -2.4805   28.2204    6.2507 H   0  0  0  0  0  0
   -2.0611   30.5725    6.5951 H   0  0  0  0  0  0
   -1.9271   32.8818    5.4224 H   0  0  0  0  0  0
  1  2  1  0  0  0
  2  3  2  0  0  0
  3  4  1  0  0  0
  4  5  2  0  0  0
  5  6  1  0  0  0
  6  7  1  0  0  0
  7  8  1  0  0  0
  8  9  1  0  0  0
  9 10  2  0  0  0
 10 11  1  0  0  0
 11 12  1  0  0  0
 12 13  1  0  0  0
 13 14  1  0  0  0
  5 15  1  0  0  0
 15 16  2  0  0  0
 16  2  1  0  0  0
 14  9  1  0  0  0
  6 17  1  0  0  0
 15 18  1  0  0  0
 16 19  1  0  0  0
M  END
>  <CHROM.0>
-59.88758699,68.06848018

>  <CHROM.1>
-1.12399805,160.44125731,-176.98611882,-99.58700613,-1.49465541,27.97540794
4.24317349,-1.68922826,-1.19663918,2.95598070

>  <Name>
2cdd3fce-2c3d-4fc9-809c-22718798f2c8

>  <RI>
1.69014e+07

>  <Rbt.Current_Directory>
/data/work/jku/5V6S/work/40/8dba899c20c42488f2b1a17844994e

>  <Rbt.Executable>
rbdock ($Id: //depot/dev/client3/rdock/2013.1/src/exe/rbdock.cxx#4 $)

>  <Rbt.Library>
libRbt.so (2013.1, Build901 2013/11/27)

>  <Rbt.Parameter_File>
/rDock_2013.1_src/data/scripts/dock.prm

>  <Rbt.Receptor>
docking.prm

>  <SCORE>
-17.0046

>  <SCORE.INTER>
-15.7573

>  <SCORE.INTER.CONST>
1

>  <SCORE.INTER.POLAR>
-1.34164

>  <SCORE.INTER.REPUL>
0

>  <SCORE.INTER.ROT>
4

>  <SCORE.INTER.VDW>
-20.5957

>  <SCORE.INTER.norm>
-0.984831

>  <SCORE.INTRA>
0.262967

>  <SCORE.INTRA.DIHEDRAL>
0.144332

>  <SCORE.INTRA.DIHEDRAL.0>
1.29501

>  <SCORE.INTRA.POLAR>
0

>  <SCORE.INTRA.POLAR.0>
0

>  <SCORE.INTRA.REPUL>
0

>  <SCORE.INTRA.REPUL.0>
0

>  <SCORE.INTRA.VDW>
0.190801

>  <SCORE.INTRA.VDW.0>
-0.0478753

>  <SCORE.INTRA.norm>
0.0164355

>  <SCORE.RESTR>
0

>  <SCORE.RESTR.CAVITY>
0

>  <SCORE.RESTR.norm>
0

>  <SCORE.SYSTEM>
-1.5103

>  <SCORE.SYSTEM.CONST>
0

>  <SCORE.SYSTEM.DIHEDRAL>
0.324139

>  <SCORE.SYSTEM.POLAR>
-0.502063

>  <SCORE.SYSTEM.VDW>
0.0346483

>  <SCORE.SYSTEM.norm>
-0.0943935

>  <SCORE.heavy>
16

>  <SCORE.norm>
-1.06279

>  <enum_code>
M

>  <enum_smi>
Clc1ccc(NCCC2=CCCCC2)[nH+][nH+]1

>  <sha256>
6149034aeb29bd8fa0ec2e92d34f1bde0841ca524aca24497fa6898cc79b03a9

>  <std_smi>
Clc1ccc(NCCC2=CCCCC2)nn1

>  <uuid>
2cdd3fce-2c3d-4fc9-809c-22718798f2c8

$$$$
2cdd3fce-2c3d-4fc9-809c-22718798f2c8
  rDOCK(R)          3D
libRbt.so/2013.1/901 2013/11/27
 19 20  0  0  0  0  0  0  0  0999 V2000
    0.4594   33.0047    0.4296 Cl  0  0  0  0  0  0
   -0.3871   32.3064    1.7374 C   0  0  0  0  0  0
   -0.8673   31.0075    1.6811 C   0  0  0  0  0  0
   -1.5634   30.4594    2.7670 C   0  0  0  0  0  0
   -1.7883   31.1725    3.9555 C   0  0  0  0  0  0
   -2.5434   30.6115    4.9640 N   0  0  0  0  0  0
   -2.9815   29.2111    5.0173 C   0  0  0  0  0  0
   -1.8965   28.3112    5.6293 C   0  0  0  0  0  0
   -2.0011   26.8276    5.3570 C   0  0  0  0  0  0
   -1.0371   26.0686    4.8007 C   0  0  0  0  0  0
   -1.1457   24.5771    4.6064 C   0  0  0  0  0  0
   -2.2996   23.9437    5.3794 C   0  0  0  0  0  0
   -3.5561   24.7944    5.2675 C   0  0  0  0  0  0
   -3.3129   26.2047    5.8073 C   0  0  0  0  0  0
   -1.3465   32.4415    4.0063 N   0  3  0  0  0  0
   -0.5981   33.0369    2.8347 N   0  3  0  0  0  0
   -3.2426   31.2365    5.3823 H   0  0  0  0  0  0
   -1.5393   32.9897    4.8449 H   0  0  0  0  0  0
   -0.2445   33.9971    2.8364 H   0  0  0  0  0  0
  1  2  1  0  0  0
  2  3  2  0  0  0
  3  4  1  0  0  0
  4  5  2  0  0  0
  5  6  1  0  0  0
  6  7  1  0  0  0
  7  8  1  0  0  0
  8  9  1  0  0  0
  9 10  2  0  0  0
 10 11  1  0  0  0
 11 12  1  0  0  0
 12 13  1  0  0  0
 13 14  1  0  0  0
  5 15  1  0  0  0
 15 16  2  0  0  0
 16  2  1  0  0  0
 14  9  1  0  0  0
  6 17  1  0  0  0
 15 18  1  0  0  0
 16 19  1  0  0  0
M  END
>  <CHROM.0>
-59.88758699,68.09669724

>  <CHROM.1>
10.53666810,84.98581222,-161.05202438,124.16367692,-1.50179080,29.37303172
3.71903885,-1.12392887,-0.94798831,3.04347461

>  <Name>
2cdd3fce-2c3d-4fc9-809c-22718798f2c8

>  <RI>
1.69014e+07

>  <Rbt.Current_Directory>
/data/work/jku/5V6S/work/40/8dba899c20c42488f2b1a17844994e

>  <Rbt.Executable>
rbdock ($Id: //depot/dev/client3/rdock/2013.1/src/exe/rbdock.cxx#4 $)

>  <Rbt.Library>
libRbt.so (2013.1, Build901 2013/11/27)

>  <Rbt.Parameter_File>
/rDock_2013.1_src/data/scripts/dock.prm

>  <Rbt.Receptor>
docking.prm

>  <SCORE>
-15.5676

>  <SCORE.INTER>
-15.2526

>  <SCORE.INTER.CONST>
1

>  <SCORE.INTER.POLAR>
-1.34164

>  <SCORE.INTER.REPUL>
0

>  <SCORE.INTER.ROT>
4

>  <SCORE.INTER.VDW>
-20.0911

>  <SCORE.INTER.norm>
-0.95329

>  <SCORE.INTRA>
1.19559

>  <SCORE.INTRA.DIHEDRAL>
2.02328

>  <SCORE.INTRA.DIHEDRAL.0>
1.29501

>  <SCORE.INTRA.POLAR>
0

>  <SCORE.INTRA.POLAR.0>
0

>  <SCORE.INTRA.REPUL>
0

>  <SCORE.INTRA.REPUL.0>
0

>  <SCORE.INTRA.VDW>
0.183946

>  <SCORE.INTRA.VDW.0>
-0.0478753

>  <SCORE.INTRA.norm>
0.0747241

>  <SCORE.RESTR>
0

>  <SCORE.RESTR.CAVITY>
0

>  <SCORE.RESTR.norm>
0

>  <SCORE.SYSTEM>
-1.51052

>  <SCORE.SYSTEM.CONST>
0

>  <SCORE.SYSTEM.DIHEDRAL>
0.326323

>  <SCORE.SYSTEM.POLAR>
-0.502101

>  <SCORE.SYSTEM.VDW>
0.0334634

>  <SCORE.SYSTEM.norm>
-0.0944075

>  <SCORE.heavy>
16

>  <SCORE.norm>
-0.972973

>  <enum_code>
M

>  <enum_smi>
Clc1ccc(NCCC2=CCCCC2)[nH+][nH+]1

>  <sha256>
6149034aeb29bd8fa0ec2e92d34f1bde0841ca524aca24497fa6898cc79b03a9

>  <std_smi>
Clc1ccc(NCCC2=CCCCC2)nn1

>  <uuid>
2cdd3fce-2c3d-4fc9-809c-22718798f2c8

$$$$
ec8dbabb-b72c-4786-9b9d-0d8313af80a3
  rDOCK(R)          3D
libRbt.so/2013.1/901 2013/11/27
 18 19  0  0  0  0  0  0  0  0999 V2000
   -1.6341   33.5167    2.7296 C   0  0  0  0  0  0
   -1.4879   32.0346    2.8597 C   0  0  0  0  0  0
   -1.9540   31.2736    4.3170 S   0  0  0  0  0  0
   -1.5150   29.7392    3.7392 C   0  0  0  0  0  0
   -1.6628   28.6599    4.5209 N   0  0  0  0  0  0
   -1.2819   27.5288    3.9257 C   0  0  0  0  0  0
   -1.3973   26.0096    4.8476 S   0  0  0  0  0  0
   -3.1045   25.4799    4.4418 C   0  0  0  0  0  0
   -4.0764   26.4113    5.1652 C   0  0  0  0  0  0
   -3.3383   24.0335    4.8712 C   0  0  0  0  0  0
   -0.8020   27.4125    2.6772 N   0  0  0  0  0  0
   -0.6691   28.5130    1.9182 C   0  0  0  0  0  0
   -0.1912   28.3055    0.6289 N   0  0  0  0  0  0
   -1.0283   29.7680    2.4432 C   0  0  0  0  0  0
   -0.9903   31.1287    1.9313 C   0  0  0  0  0  0
   -0.4726   31.5052    0.5785 C   0  0  0  0  0  0
   -0.3062   27.3275    0.3799 H   0  0  0  0  0  0
   -0.5355   28.9626   -0.0563 H   0  0  0  0  0  0
  1  2  1  0  0  0
  2  3  1  0  0  0
  3  4  1  0  0  0
  4  5  2  0  0  0
  5  6  1  0  0  0
  6  7  1  0  0  0
  7  8  1  0  0  0
  8  9  1  0  0  0
  8 10  1  0  0  0
  6 11  2  0  0  0
 11 12  1  0  0  0
 12 13  1  0  0  0
 12 14  2  0  0  0
 14 15  1  0  0  0
 15 16  1  0  0  0
 15  2  2  0  0  0
 14  4  1  0  0  0
 13 17  1  0  0  0
 13 18  1  0  0  0
M  END
>  <CHROM.0>
-59.88758699,69.07975225

>  <CHROM.1>
89.11857708,-71.65535029,18.30813438,-1.62921280,28.76841244,3.41079340,1.18146587
1.01538208,-0.02169155

>  <Name>
ec8dbabb-b72c-4786-9b9d-0d8313af80a3

>  <RI>
4.04657e+07

>  <Rbt.Current_Directory>
/data/work/jku/5V6S/work/40/8dba899c20c42488f2b1a17844994e

>  <Rbt.Executable>
rbdock ($Id: //depot/dev/client3/rdock/2013.1/src/exe/rbdock.cxx#4 $)

>  <Rbt.Library>
libRbt.so (2013.1, Build901 2013/11/27)

>  <Rbt.Parameter_File>
/rDock_2013.1_src/data/scripts/dock.prm

>  <Rbt.Receptor>
docking.prm

>  <SCORE>
-16.9036

>  <SCORE.INTER>
-15.4225

>  <SCORE.INTER.CONST>
1

>  <SCORE.INTER.POLAR>
-0.722164

>  <SCORE.INTER.REPUL>
0

>  <SCORE.INTER.ROT>
3

>  <SCORE.INTER.VDW>
-21.3672

>  <SCORE.INTER.norm>
-0.963908

>  <SCORE.INTRA>
0.0324163

>  <SCORE.INTRA.DIHEDRAL>
-0.0125227

>  <SCORE.INTRA.DIHEDRAL.0>
2.71661

>  <SCORE.INTRA.POLAR>
0

>  <SCORE.INTRA.POLAR.0>
0

>  <SCORE.INTRA.REPUL>
0

>  <SCORE.INTRA.REPUL.0>
0

>  <SCORE.INTRA.VDW>
0.0386777

>  <SCORE.INTRA.VDW.0>
-0.706839

>  <SCORE.INTRA.norm>
0.00202602

>  <SCORE.RESTR>
0

>  <SCORE.RESTR.CAVITY>
0

>  <SCORE.RESTR.norm>
0

>  <SCORE.SYSTEM>
-1.51353

>  <SCORE.SYSTEM.CONST>
0

>  <SCORE.SYSTEM.DIHEDRAL>
0.406861

>  <SCORE.SYSTEM.POLAR>
-0.503032

>  <SCORE.SYSTEM.VDW>
-0.00665348

>  <SCORE.SYSTEM.norm>
-0.0945958

>  <SCORE.heavy>
16

>  <SCORE.norm>
-1.05648

>  <enum_code>
B

>  <enum_smi>
Cc1sc2nc(SC(C)C)nc(N)c2c1C

>  <sha256>
f184dd6951dd47e0055fc30c5b0e95ad9abd5d41652c716f1f97c53591a4cb37

>  <std_smi>
Cc1sc2nc(SC(C)C)nc(N)c2c1C

>  <uuid>
ec8dbabb-b72c-4786-9b9d-0d8313af80a3

$$$$
ec8dbabb-b72c-4786-9b9d-0d8313af80a3
  rDOCK(R)          3D
libRbt.so/2013.1/901 2013/11/27
 18 19  0  0  0  0  0  0  0  0999 V2000
   -1.5833   33.5917    2.8528 C   0  0  0  0  0  0
   -1.5136   32.0986    2.8800 C   0  0  0  0  0  0
   -2.2011   31.2538    4.1966 S   0  0  0  0  0  0
   -1.7479   29.7475    3.5586 C   0  0  0  0  0  0
   -2.0415   28.6209    4.2238 N   0  0  0  0  0  0
   -1.6278   27.5205    3.5938 C   0  0  0  0  0  0
   -1.9253   25.9437    4.3659 S   0  0  0  0  0  0
   -0.8454   26.0648    5.8421 C   0  0  0  0  0  0
   -0.8224   24.6996    6.5283 C   0  0  0  0  0  0
   -1.3620   27.1323    6.8038 C   0  0  0  0  0  0
   -0.9888   27.4753    2.4139 N   0  0  0  0  0  0
   -0.7121   28.6220    1.7710 C   0  0  0  0  0  0
   -0.0731   28.4891    0.5431 N   0  0  0  0  0  0
   -1.0901   29.8501    2.3446 C   0  0  0  0  0  0
   -0.9307   31.2419    1.9544 C   0  0  0  0  0  0
   -0.2210   31.6935    0.7166 C   0  0  0  0  0  0
    0.0821   27.5044    0.3485 H   0  0  0  0  0  0
   -0.4996   29.0098   -0.2097 H   0  0  0  0  0  0
  1  2  1  0  0  0
  2  3  1  0  0  0
  3  4  1  0  0  0
  4  5  2  0  0  0
  5  6  1  0  0  0
  6  7  1  0  0  0
  7  8  1  0  0  0
  8  9  1  0  0  0
  8 10  1  0  0  0
  6 11  2  0  0  0
 11 12  1  0  0  0
 12 13  1  0  0  0
 12 14  2  0  0  0
 14 15  1  0  0  0
 15 16  1  0  0  0
 15  2  2  0  0  0
 14  4  1  0  0  0
 13 17  1  0  0  0
 13 18  1  0  0  0
M  END
>  <CHROM.0>
-59.88758699,68.65222345

>  <CHROM.1>
-66.59412834,-171.97229466,-0.42434232,-1.33676599,28.91536225,3.54725873
1.51429313,1.24619457,-0.43767334

>  <Name>
ec8dbabb-b72c-4786-9b9d-0d8313af80a3

>  <RI>
4.04657e+07

>  <Rbt.Current_Directory>
/data/work/jku/5V6S/work/40/8dba899c20c42488f2b1a17844994e

>  <Rbt.Executable>
rbdock ($Id: //depot/dev/client3/rdock/2013.1/src/exe/rbdock.cxx#4 $)

>  <Rbt.Library>
libRbt.so (2013.1, Build901 2013/11/27)

>  <Rbt.Parameter_File>
/rDock_2013.1_src/data/scripts/dock.prm

>  <Rbt.Receptor>
docking.prm

>  <SCORE>
-16.1141

>  <SCORE.INTER>
-14.4743

>  <SCORE.INTER.CONST>
1

>  <SCORE.INTER.POLAR>
-0.780764

>  <SCORE.INTER.REPUL>
0

>  <SCORE.INTER.ROT>
3

>  <SCORE.INTER.VDW>
-20.2197

>  <SCORE.INTER.norm>
-0.904646

>  <SCORE.INTRA>
-0.126377

>  <SCORE.INTRA.DIHEDRAL>
-0.141319

>  <SCORE.INTRA.DIHEDRAL.0>
2.71661

>  <SCORE.INTRA.POLAR>
0

>  <SCORE.INTRA.POLAR.0>
0

>  <SCORE.INTRA.REPUL>
0

>  <SCORE.INTRA.REPUL.0>
0

>  <SCORE.INTRA.VDW>
-0.0557179

>  <SCORE.INTRA.VDW.0>
-0.706839

>  <SCORE.INTRA.norm>
-0.00789859

>  <SCORE.RESTR>
0

>  <SCORE.RESTR.CAVITY>
0

>  <SCORE.RESTR.norm>
0

>  <SCORE.SYSTEM>
-1.51335

>  <SCORE.SYSTEM.CONST>
0

>  <SCORE.SYSTEM.DIHEDRAL>
0.37078

>  <SCORE.SYSTEM.POLAR>
-0.502724

>  <SCORE.SYSTEM.VDW>
0.0105181

>  <SCORE.SYSTEM.norm>
-0.0945846

>  <SCORE.heavy>
16

>  <SCORE.norm>
-1.00713

>  <enum_code>
B

>  <enum_smi>
Cc1sc2nc(SC(C)C)nc(N)c2c1C

>  <sha256>
f184dd6951dd47e0055fc30c5b0e95ad9abd5d41652c716f1f97c53591a4cb37

>  <std_smi>
Cc1sc2nc(SC(C)C)nc(N)c2c1C

>  <uuid>
ec8dbabb-b72c-4786-9b9d-0d8313af80a3

$$$$
ec8dbabb-b72c-4786-9b9d-0d8313af80a3
  rDOCK(R)          3D
libRbt.so/2013.1/901 2013/11/27
 18 19  0  0  0  0  0  0  0  0999 V2000
   -1.5711   33.4372    2.6781 C   0  0  0  0  0  0
   -1.4489   31.9547    2.8263 C   0  0  0  0  0  0
   -1.8730   31.2257    4.3124 S   0  0  0  0  0  0
   -1.4866   29.6740    3.7430 C   0  0  0  0  0  0
   -1.6251   28.6100    4.5471 N   0  0  0  0  0  0
   -1.2896   27.4625    3.9560 C   0  0  0  0  0  0
   -1.3988   25.9602    4.9060 S   0  0  0  0  0  0
   -3.0897   25.3956    4.4794 C   0  0  0  0  0  0
   -4.0893   26.3091    5.1876 C   0  0  0  0  0  0
   -3.3002   23.9458    4.9095 C   0  0  0  0  0  0
   -0.8608   27.3174    2.6920 N   0  0  0  0  0  0
   -0.7360   28.4033    1.9108 C   0  0  0  0  0  0
   -0.3125   28.1665    0.6076 N   0  0  0  0  0  0
   -1.0501   29.6732    2.4290 C   0  0  0  0  0  0
   -1.0054   31.0248    1.8941 C   0  0  0  0  0  0
   -0.5332   31.3701    0.5166 C   0  0  0  0  0  0
   -0.5581   28.9605    0.0237 H   0  0  0  0  0  0
    0.6463   27.8598    0.5278 H   0  0  0  0  0  0
  1  2  1  0  0  0
  2  3  1  0  0  0
  3  4  1  0  0  0
  4  5  2  0  0  0
  5  6  1  0  0  0
  6  7  1  0  0  0
  7  8  1  0  0  0
  8  9  1  0  0  0
  8 10  1  0  0  0
  6 11  2  0  0  0
 11 12  1  0  0  0
 12 13  1  0  0  0
 12 14  2  0  0  0
 14 15  1  0  0  0
 15 16  1  0  0  0
 15  2  2  0  0  0
 14  4  1  0  0  0
 13 17  1  0  0  0
 13 18  1  0  0  0
M  END
>  <CHROM.0>
-59.88758699,68.29958047

>  <CHROM.1>
92.98573784,-72.73583739,160.21550265,-1.62303176,28.68954187,3.41564566
1.15379012,1.05000482,-0.00059687

>  <Name>
ec8dbabb-b72c-4786-9b9d-0d8313af80a3

>  <RI>
4.04657e+07

>  <Rbt.Current_Directory>
/data/work/jku/5V6S/work/40/8dba899c20c42488f2b1a17844994e

>  <Rbt.Executable>
rbdock ($Id: //depot/dev/client3/rdock/2013.1/src/exe/rbdock.cxx#4 $)

>  <Rbt.Library>
libRbt.so (2013.1, Build901 2013/11/27)

>  <Rbt.Parameter_File>
/rDock_2013.1_src/data/scripts/dock.prm

>  <Rbt.Receptor>
docking.prm

>  <SCORE>
-15.5752

>  <SCORE.INTER>
-14.7596

>  <SCORE.INTER.CONST>
1

>  <SCORE.INTER.POLAR>
-0.613206

>  <SCORE.INTER.REPUL>
0

>  <SCORE.INTER.ROT>
3

>  <SCORE.INTER.VDW>
-21.0747

>  <SCORE.INTER.norm>
-0.922473

>  <SCORE.INTRA>
0.696288

>  <SCORE.INTRA.DIHEDRAL>
0.0313727

>  <SCORE.INTRA.DIHEDRAL.0>
2.71661

>  <SCORE.INTRA.POLAR>
0

>  <SCORE.INTRA.POLAR.0>
0

>  <SCORE.INTRA.REPUL>
0

>  <SCORE.INTRA.REPUL.0>
0

>  <SCORE.INTRA.VDW>
0.680601

>  <SCORE.INTRA.VDW.0>
-0.706839

>  <SCORE.INTRA.norm>
0.043518

>  <SCORE.RESTR>
0

>  <SCORE.RESTR.CAVITY>
0

>  <SCORE.RESTR.norm>
0

>  <SCORE.SYSTEM>
-1.5119

>  <SCORE.SYSTEM.CONST>
0

>  <SCORE.SYSTEM.DIHEDRAL>
0.34224

>  <SCORE.SYSTEM.POLAR>
-0.502358

>  <SCORE.SYSTEM.VDW>
0.0249999

>  <SCORE.SYSTEM.norm>
-0.0944937

>  <SCORE.heavy>
16

>  <SCORE.norm>
-0.973449

>  <enum_code>
B

>  <enum_smi>
Cc1sc2nc(SC(C)C)nc(N)c2c1C

>  <sha256>
f184dd6951dd47e0055fc30c5b0e95ad9abd5d41652c716f1f97c53591a4cb37

>  <std_smi>
Cc1sc2nc(SC(C)C)nc(N)c2c1C

>  <uuid>
ec8dbabb-b72c-4786-9b9d-0d8313af80a3

$$$$
ec8dbabb-b72c-4786-9b9d-0d8313af80a3
  rDOCK(R)          3D
libRbt.so/2013.1/901 2013/11/27
 18 19  0  0  0  0  0  0  0  0999 V2000
   -0.1750   32.0198    0.3961 C   0  0  0  0  0  0
   -0.7052   31.2316    1.5504 C   0  0  0  0  0  0
   -0.9147   29.5439    1.3840 S   0  0  0  0  0  0
   -1.5055   29.3893    2.9677 C   0  0  0  0  0  0
   -1.8726   28.1866    3.4329 N   0  0  0  0  0  0
   -2.3079   28.2255    4.6930 C   0  0  0  0  0  0
   -2.8542   26.7063    5.4445 S   0  0  0  0  0  0
   -1.6650   25.5104    4.7264 C   0  0  0  0  0  0
   -2.1873   24.0998    4.9959 C   0  0  0  0  0  0
   -0.2797   25.6890    5.3431 C   0  0  0  0  0  0
   -2.3867   29.3166    5.4713 N   0  0  0  0  0  0
   -2.0079   30.5067    4.9762 C   0  0  0  0  0  0
   -2.0939   31.5826    5.8530 N   0  0  0  0  0  0
   -1.5408   30.5927    3.6517 C   0  0  0  0  0  0
   -1.0896   31.6861    2.8058 C   0  0  0  0  0  0
   -1.0524   33.1203    3.2318 C   0  0  0  0  0  0
   -1.2621   31.6105    6.4353 H   0  0  0  0  0  0
   -2.3377   32.4601    5.4168 H   0  0  0  0  0  0
  1  2  1  0  0  0
  2  3  1  0  0  0
  3  4  1  0  0  0
  4  5  2  0  0  0
  5  6  1  0  0  0
  6  7  1  0  0  0
  7  8  1  0  0  0
  8  9  1  0  0  0
  8 10  1  0  0  0
  6 11  2  0  0  0
 11 12  1  0  0  0
 12 13  1  0  0  0
 12 14  2  0  0  0
 14 15  1  0  0  0
 15 16  1  0  0  0
 15  2  2  0  0  0
 14  4  1  0  0  0
 13 17  1  0  0  0
 13 18  1  0  0  0
M  END
>  <CHROM.0>
-59.88758699,69.41543186

>  <CHROM.1>
36.79006779,-166.52765663,83.19102997,-1.58122721,29.03696921,3.77714313
-1.08024072,-1.20573262,3.13341637

>  <Name>
ec8dbabb-b72c-4786-9b9d-0d8313af80a3

>  <RI>
4.04657e+07

>  <Rbt.Current_Directory>
/data/work/jku/5V6S/work/40/8dba899c20c42488f2b1a17844994e

>  <Rbt.Executable>
rbdock ($Id: //depot/dev/client3/rdock/2013.1/src/exe/rbdock.cxx#4 $)

>  <Rbt.Library>
libRbt.so (2013.1, Build901 2013/11/27)

>  <Rbt.Parameter_File>
/rDock_2013.1_src/data/scripts/dock.prm

>  <Rbt.Receptor>
docking.prm

>  <SCORE>
-16.3649

>  <SCORE.INTER>
-14.9046

>  <SCORE.INTER.CONST>
1

>  <SCORE.INTER.POLAR>
-0.657382

>  <SCORE.INTER.REPUL>
0

>  <SCORE.INTER.ROT>
3

>  <SCORE.INTER.VDW>
-21.0695

>  <SCORE.INTER.norm>
-0.931535

>  <SCORE.INTRA>
0.0521663

>  <SCORE.INTRA.DIHEDRAL>
0.0455331

>  <SCORE.INTRA.DIHEDRAL.0>
2.71661

>  <SCORE.INTRA.POLAR>
0

>  <SCORE.INTRA.POLAR.0>
0

>  <SCORE.INTRA.REPUL>
0

>  <SCORE.INTRA.REPUL.0>
0

>  <SCORE.INTRA.VDW>
0.0293997

>  <SCORE.INTRA.VDW.0>
-0.706839

>  <SCORE.INTRA.norm>
0.00326039

>  <SCORE.RESTR>
0

>  <SCORE.RESTR.CAVITY>
0

>  <SCORE.RESTR.norm>
0

>  <SCORE.SYSTEM>
-1.51247

>  <SCORE.SYSTEM.CONST>
0

>  <SCORE.SYSTEM.DIHEDRAL>
0.436314

>  <SCORE.SYSTEM.POLAR>
-0.50317

>  <SCORE.SYSTEM.VDW>
-0.019844

>  <SCORE.SYSTEM.norm>
-0.0945291

>  <SCORE.heavy>
16

>  <SCORE.norm>
-1.0228

>  <enum_code>
B

>  <enum_smi>
Cc1sc2nc(SC(C)C)nc(N)c2c1C

>  <sha256>
f184dd6951dd47e0055fc30c5b0e95ad9abd5d41652c716f1f97c53591a4cb37

>  <std_smi>
Cc1sc2nc(SC(C)C)nc(N)c2c1C

>  <uuid>
ec8dbabb-b72c-4786-9b9d-0d8313af80a3

$$$$
ec8dbabb-b72c-4786-9b9d-0d8313af80a3
  rDOCK(R)          3D
libRbt.so/2013.1/901 2013/11/27
 18 19  0  0  0  0  0  0  0  0999 V2000
   -1.6434   33.5246    2.7094 C   0  0  0  0  0  0
   -1.5003   32.0429    2.8474 C   0  0  0  0  0  0
   -1.9814   31.2889    4.3034 S   0  0  0  0  0  0
   -1.5386   29.7514    3.7365 C   0  0  0  0  0  0
   -1.6953   28.6757    4.5215 N   0  0  0  0  0  0
   -1.3101   27.5415    3.9349 C   0  0  0  0  0  0
   -1.4362   26.0265    4.8623 S   0  0  0  0  0  0
   -3.1344   25.4889    4.4298 C   0  0  0  0  0  0
   -4.1213   26.4365    5.1103 C   0  0  0  0  0  0
   -3.3793   24.0524    4.8855 C   0  0  0  0  0  0
   -0.8183   27.4192    2.6916 N   0  0  0  0  0  0
   -0.6768   28.5162    1.9291 C   0  0  0  0  0  0
   -0.1868   28.3026    0.6454 N   0  0  0  0  0  0
   -1.0395   29.7740    2.4452 C   0  0  0  0  0  0
   -0.9949   31.1323    1.9277 C   0  0  0  0  0  0
   -0.4638   31.5024    0.5784 C   0  0  0  0  0  0
   -0.2959   27.3226    0.4015 H   0  0  0  0  0  0
   -0.5274   28.9541   -0.0469 H   0  0  0  0  0  0
  1  2  1  0  0  0
  2  3  1  0  0  0
  3  4  1  0  0  0
  4  5  2  0  0  0
  5  6  1  0  0  0
  6  7  1  0  0  0
  7  8  1  0  0  0
  8  9  1  0  0  0
  8 10  1  0  0  0
  6 11  2  0  0  0
 11 12  1  0  0  0
 12 13  1  0  0  0
 12 14  2  0  0  0
 14 15  1  0  0  0
 15 16  1  0  0  0
 15  2  2  0  0  0
 14  4  1  0  0  0
 13 17  1  0  0  0
 13 18  1  0  0  0
M  END
>  <CHROM.0>
-59.88758699,179.59123620

>  <CHROM.1>
89.63081096,-70.60289672,18.00098121,-1.65079336,28.77907956,3.40872270,1.17969164
1.00560232,-0.02323528

>  <Name>
ec8dbabb-b72c-4786-9b9d-0d8313af80a3

>  <RI>
4.04657e+07

>  <Rbt.Current_Directory>
/data/work/jku/5V6S/work/40/8dba899c20c42488f2b1a17844994e

>  <Rbt.Executable>
rbdock ($Id: //depot/dev/client3/rdock/2013.1/src/exe/rbdock.cxx#4 $)

>  <Rbt.Library>
libRbt.so (2013.1, Build901 2013/11/27)

>  <Rbt.Parameter_File>
/rDock_2013.1_src/data/scripts/dock.prm

>  <Rbt.Receptor>
docking.prm

>  <SCORE>
-15.6496

>  <SCORE.INTER>
-15.3965

>  <SCORE.INTER.CONST>
1

>  <SCORE.INTER.POLAR>
-0.731762

>  <SCORE.INTER.REPUL>
0

>  <SCORE.INTER.ROT>
3

>  <SCORE.INTER.VDW>
-21.3085

>  <SCORE.INTER.norm>
-0.962282

>  <SCORE.INTRA>
0.0183556

>  <SCORE.INTRA.DIHEDRAL>
-0.0487935

>  <SCORE.INTRA.DIHEDRAL.0>
2.71661

>  <SCORE.INTRA.POLAR>
0

>  <SCORE.INTRA.POLAR.0>
0

>  <SCORE.INTRA.REPUL>
0

>  <SCORE.INTRA.REPUL.0>
0

>  <SCORE.INTRA.VDW>
0.0427523

>  <SCORE.INTRA.VDW.0>
-0.706839

>  <SCORE.INTRA.norm>
0.00114722

>  <SCORE.RESTR>
0

>  <SCORE.RESTR.CAVITY>
0

>  <SCORE.RESTR.norm>
0

>  <SCORE.SYSTEM>
-0.271485

>  <SCORE.SYSTEM.CONST>
0

>  <SCORE.SYSTEM.DIHEDRAL>
0.0084558

>  <SCORE.SYSTEM.VDW>
-0.275713

>  <SCORE.SYSTEM.norm>
-0.0169678

>  <SCORE.heavy>
16

>  <SCORE.norm>
-0.978103

>  <enum_code>
B

>  <enum_smi>
Cc1sc2nc(SC(C)C)nc(N)c2c1C

>  <sha256>
f184dd6951dd47e0055fc30c5b0e95ad9abd5d41652c716f1f97c53591a4cb37

>  <std_smi>
Cc1sc2nc(SC(C)C)nc(N)c2c1C

>  <uuid>
ec8dbabb-b72c-4786-9b9d-0d8313af80a3

$$$$
b79aa8b7-138f-4964-9c84-2d60fec0dda8
  rDOCK(R)          3D
libRbt.so/2013.1/901 2013/11/27
 18 19  0  0  0  0  0  0  0  0999 V2000
   -2.0446   33.7828    2.7715 C   0  0  0  0  0  0
   -2.1626   32.3313    3.1081 C   0  0  0  0  0  0
   -1.7221   31.7926    4.6769 S   0  0  0  0  0  0
   -2.1045   30.1965    4.2944 C   0  0  0  0  0  0
   -1.9989   29.1375    5.1165 N   0  0  0  0  0  0
   -2.3561   27.9009    4.6533 C   0  0  0  0  0  0
   -2.1667   26.6196    5.8321 S   0  0  0  0  0  0
   -1.6187   25.2282    4.7824 C   0  0  0  0  0  0
   -1.7781   23.9026    5.5231 C   0  0  0  0  0  0
   -0.1545   25.4546    4.4095 C   0  0  0  0  0  0
   -2.7901   27.6371    3.4600 N   0  0  0  0  0  0
   -2.9096   28.6879    2.5865 C   0  0  0  0  0  0
   -3.3366   28.4310    1.4017 N   0  0  0  0  0  0
   -2.5605   30.0354    3.0072 C   0  0  0  0  0  0
   -2.6029   31.2896    2.2975 C   0  0  0  0  0  0
   -3.0585   31.4321    0.8793 C   0  0  0  0  0  0
   -1.6603   29.2168    6.0666 H   0  0  0  0  0  0
   -3.4933   27.4171    1.3966 H   0  0  0  0  0  0
  1  2  1  0  0  0
  2  3  1  0  0  0
  3  4  1  0  0  0
  4  5  1  0  0  0
  5  6  1  0  0  0
  6  7  1  0  0  0
  7  8  1  0  0  0
  8  9  1  0  0  0
  8 10  1  0  0  0
  6 11  2  0  0  0
 11 12  1  0  0  0
 12 13  2  0  0  0
 12 14  1  0  0  0
 14 15  1  0  0  0
 15 16  1  0  0  0
 15  2  2  0  0  0
 14  4  2  0  0  0
  5 17  1  0  0  0
 13 18  1  0  0  0
M  END
>  <CHROM.0>
-59.88758699,69.14788447

>  <CHROM.1>
-143.80081215,-163.52225056,-2.15902709,28.97435817,3.90822874,-1.84186897
1.22830106,3.06720064

>  <Name>
b79aa8b7-138f-4964-9c84-2d60fec0dda8

>  <RI>
3.30151e+07

>  <Rbt.Current_Directory>
/data/work/jku/5V6S/work/40/8dba899c20c42488f2b1a17844994e

>  <Rbt.Executable>
rbdock ($Id: //depot/dev/client3/rdock/2013.1/src/exe/rbdock.cxx#4 $)

>  <Rbt.Library>
libRbt.so (2013.1, Build901 2013/11/27)

>  <Rbt.Parameter_File>
/rDock_2013.1_src/data/scripts/dock.prm

>  <Rbt.Receptor>
docking.prm

>  <SCORE>
-10.4622

>  <SCORE.INTER>
-8.99223

>  <SCORE.INTER.CONST>
1

>  <SCORE.INTER.POLAR>
0

>  <SCORE.INTER.REPUL>
0

>  <SCORE.INTER.ROT>
2

>  <SCORE.INTER.VDW>
-16.3922

>  <SCORE.INTER.norm>
-0.562014

>  <SCORE.INTRA>
0.0433979

>  <SCORE.INTRA.DIHEDRAL>
0.229342

>  <SCORE.INTRA.DIHEDRAL.0>
2.2183

>  <SCORE.INTRA.POLAR>
0

>  <SCORE.INTRA.POLAR.0>
0

>  <SCORE.INTRA.REPUL>
0

>  <SCORE.INTRA.REPUL.0>
0

>  <SCORE.INTRA.VDW>
-0.0712729

>  <SCORE.INTRA.VDW.0>
-0.584403

>  <SCORE.INTRA.norm>
0.00271237

>  <SCORE.RESTR>
0

>  <SCORE.RESTR.CAVITY>
0

>  <SCORE.RESTR.norm>
0

>  <SCORE.SYSTEM>
-1.5134

>  <SCORE.SYSTEM.CONST>
0

>  <SCORE.SYSTEM.DIHEDRAL>
0.412759

>  <SCORE.SYSTEM.POLAR>
-0.503067

>  <SCORE.SYSTEM.VDW>
-0.00935138

>  <SCORE.SYSTEM.norm>
-0.0945876

>  <SCORE.heavy>
16

>  <SCORE.norm>
-0.65389

>  <enum_code>
T

>  <enum_smi>
Cc1sc2[nH]c(SC(C)C)nc(=N)c2c1C

>  <sha256>
f184dd6951dd47e0055fc30c5b0e95ad9abd5d41652c716f1f97c53591a4cb37

>  <std_smi>
Cc1sc2nc(SC(C)C)nc(N)c2c1C

>  <uuid>
b79aa8b7-138f-4964-9c84-2d60fec0dda8

$$$$
b79aa8b7-138f-4964-9c84-2d60fec0dda8
  rDOCK(R)          3D
libRbt.so/2013.1/901 2013/11/27
 18 19  0  0  0  0  0  0  0  0999 V2000
   -1.5839   33.6951    2.9663 C   0  0  0  0  0  0
   -1.5130   32.2028    3.0113 C   0  0  0  0  0  0
   -2.1688   31.3693    4.3605 S   0  0  0  0  0  0
   -1.7353   29.8740    3.7152 C   0  0  0  0  0  0
   -1.9571   28.6734    4.2789 N   0  0  0  0  0  0
   -1.5459   27.5466    3.6212 C   0  0  0  0  0  0
   -1.9012   26.0582    4.4730 S   0  0  0  0  0  0
   -0.2369   25.5358    5.0166 C   0  0  0  0  0  0
    0.5114   24.8548    3.8731 C   0  0  0  0  0  0
   -0.3951   24.5746    6.1936 C   0  0  0  0  0  0
   -0.9349   27.5194    2.4775 N   0  0  0  0  0  0
   -0.6844   28.7226    1.8684 C   0  0  0  0  0  0
   -0.0765   28.7009    0.7360 N   0  0  0  0  0  0
   -1.1008   29.9652    2.4987 C   0  0  0  0  0  0
   -0.9669   31.3352    2.0704 C   0  0  0  0  0  0
   -0.3212   31.7497    0.7857 C   0  0  0  0  0  0
   -2.4137   28.5683    5.1756 H   0  0  0  0  0  0
    0.0907   27.7060    0.5503 H   0  0  0  0  0  0
  1  2  1  0  0  0
  2  3  1  0  0  0
  3  4  1  0  0  0
  4  5  1  0  0  0
  5  6  1  0  0  0
  6  7  1  0  0  0
  7  8  1  0  0  0
  8  9  1  0  0  0
  8 10  1  0  0  0
  6 11  2  0  0  0
 11 12  1  0  0  0
 12 13  2  0  0  0
 12 14  1  0  0  0
 14 15  1  0  0  0
 15 16  1  0  0  0
 15  2  2  0  0  0
 14  4  2  0  0  0
  5 17  1  0  0  0
 13 18  1  0  0  0
M  END
>  <CHROM.0>
-59.88758699,68.78689683

>  <CHROM.1>
-108.50075272,-80.21147083,-1.16434755,28.82711578,3.42803489,1.77069649
1.08349858,-0.47858357

>  <Name>
b79aa8b7-138f-4964-9c84-2d60fec0dda8

>  <RI>
3.30151e+07

>  <Rbt.Current_Directory>
/data/work/jku/5V6S/work/40/8dba899c20c42488f2b1a17844994e

>  <Rbt.Executable>
rbdock ($Id: //depot/dev/client3/rdock/2013.1/src/exe/rbdock.cxx#4 $)

>  <Rbt.Library>
libRbt.so (2013.1, Build901 2013/11/27)

>  <Rbt.Parameter_File>
/rDock_2013.1_src/data/scripts/dock.prm

>  <Rbt.Receptor>
docking.prm

>  <SCORE>
-13.6833

>  <SCORE.INTER>
-12.1601

>  <SCORE.INTER.CONST>
1

>  <SCORE.INTER.POLAR>
0

>  <SCORE.INTER.REPUL>
0.283155

>  <SCORE.INTER.ROT>
2

>  <SCORE.INTER.VDW>
-20.9759

>  <SCORE.INTER.norm>
-0.760006

>  <SCORE.INTRA>
-0.00962179

>  <SCORE.INTRA.DIHEDRAL>
0.377853

>  <SCORE.INTRA.DIHEDRAL.0>
2.2183

>  <SCORE.INTRA.POLAR>
0

>  <SCORE.INTRA.POLAR.0>
0

>  <SCORE.INTRA.REPUL>
0

>  <SCORE.INTRA.REPUL.0>
0

>  <SCORE.INTRA.VDW>
-0.198548

>  <SCORE.INTRA.VDW.0>
-0.584403

>  <SCORE.INTRA.norm>
-0.000601362

>  <SCORE.RESTR>
0

>  <SCORE.RESTR.CAVITY>
0

>  <SCORE.RESTR.norm>
0

>  <SCORE.SYSTEM>
-1.5136

>  <SCORE.SYSTEM.CONST>
0

>  <SCORE.SYSTEM.DIHEDRAL>
0.381972

>  <SCORE.SYSTEM.POLAR>
-0.502837

>  <SCORE.SYSTEM.VDW>
0.00506366

>  <SCORE.SYSTEM.norm>
-0.0945998

>  <SCORE.heavy>
16

>  <SCORE.norm>
-0.855207

>  <enum_code>
T

>  <enum_smi>
Cc1sc2[nH]c(SC(C)C)nc(=N)c2c1C

>  <sha256>
f184dd6951dd47e0055fc30c5b0e95ad9abd5d41652c716f1f97c53591a4cb37

>  <std_smi>
Cc1sc2nc(SC(C)C)nc(N)c2c1C

>  <uuid>
b79aa8b7-138f-4964-9c84-2d60fec0dda8

$$$$
b79aa8b7-138f-4964-9c84-2d60fec0dda8
  rDOCK(R)          3D
libRbt.so/2013.1/901 2013/11/27
 18 19  0  0  0  0  0  0  0  0999 V2000
   -0.5415   32.2402    0.6113 C   0  0  0  0  0  0
   -0.9048   31.3593    1.7628 C   0  0  0  0  0  0
   -1.0311   29.6652    1.5196 S   0  0  0  0  0  0
   -1.4349   29.4093    3.1357 C   0  0  0  0  0  0
   -1.6951   28.2209    3.7089 N   0  0  0  0  0  0
   -2.0045   28.1813    5.0408 C   0  0  0  0  0  0
   -2.3181   26.5692    5.6489 S   0  0  0  0  0  0
   -0.6260   25.9014    5.8189 C   0  0  0  0  0  0
   -0.0605   25.5198    4.4529 C   0  0  0  0  0  0
   -0.6815   24.6768    6.7307 C   0  0  0  0  0  0
   -2.0850   29.2081    5.8290 N   0  0  0  0  0  0
   -1.8313   30.4414    5.2847 C   0  0  0  0  0  0
   -1.9127   31.4625    6.0613 N   0  0  0  0  0  0
   -1.4842   30.5657    3.8781 C   0  0  0  0  0  0
   -1.1693   31.7238    3.0794 C   0  0  0  0  0  0
   -1.1396   33.1224    3.6110 C   0  0  0  0  0  0
   -1.6759   27.3510    3.1927 H   0  0  0  0  0  0
   -2.1734   31.0739    6.9743 H   0  0  0  0  0  0
  1  2  1  0  0  0
  2  3  1  0  0  0
  3  4  1  0  0  0
  4  5  1  0  0  0
  5  6  1  0  0  0
  6  7  1  0  0  0
  7  8  1  0  0  0
  8  9  1  0  0  0
  8 10  1  0  0  0
  6 11  2  0  0  0
 11 12  1  0  0  0
 12 13  2  0  0  0
 12 14  1  0  0  0
 14 15  1  0  0  0
 15 16  1  0  0  0
 15  2  2  0  0  0
 14  4  2  0  0  0
  5 17  1  0  0  0
 13 18  1  0  0  0
M  END
>  <CHROM.0>
-59.88758699,-179.73955134

>  <CHROM.1>
77.71036454,-76.23749955,-1.34825665,29.06158722,4.07439122,-1.46048942,-1.27406229
2.70101676

>  <Name>
b79aa8b7-138f-4964-9c84-2d60fec0dda8

>  <RI>
3.30151e+07

>  <Rbt.Current_Directory>
/data/work/jku/5V6S/work/40/8dba899c20c42488f2b1a17844994e

>  <Rbt.Executable>
rbdock ($Id: //depot/dev/client3/rdock/2013.1/src/exe/rbdock.cxx#4 $)

>  <Rbt.Library>
libRbt.so (2013.1, Build901 2013/11/27)

>  <Rbt.Parameter_File>
/rDock_2013.1_src/data/scripts/dock.prm

>  <Rbt.Receptor>
docking.prm

>  <SCORE>
-14.1138

>  <SCORE.INTER>
-13.8139

>  <SCORE.INTER.CONST>
1

>  <SCORE.INTER.POLAR>
0

>  <SCORE.INTER.REPUL>
0.0582399

>  <SCORE.INTER.ROT>
2

>  <SCORE.INTER.VDW>
-21.5051

>  <SCORE.INTER.norm>
-0.863366

>  <SCORE.INTRA>
-0.0283676

>  <SCORE.INTRA.DIHEDRAL>
0.213326

>  <SCORE.INTRA.DIHEDRAL.0>
2.2183

>  <SCORE.INTRA.POLAR>
0

>  <SCORE.INTRA.POLAR.0>
0

>  <SCORE.INTRA.REPUL>
0

>  <SCORE.INTRA.REPUL.0>
0

>  <SCORE.INTRA.VDW>
-0.13503

>  <SCORE.INTRA.VDW.0>
-0.584403

>  <SCORE.INTRA.norm>
-0.00177297

>  <SCORE.RESTR>
0

>  <SCORE.RESTR.CAVITY>
0

>  <SCORE.RESTR.norm>
0

>  <SCORE.SYSTEM>
-0.271556

>  <SCORE.SYSTEM.CONST>
0

>  <SCORE.SYSTEM.DIHEDRAL>
0.00796603

>  <SCORE.SYSTEM.VDW>
-0.275539

>  <SCORE.SYSTEM.norm>
-0.0169722

>  <SCORE.heavy>
16

>  <SCORE.norm>
-0.882111

>  <enum_code>
T

>  <enum_smi>
Cc1sc2[nH]c(SC(C)C)nc(=N)c2c1C

>  <sha256>
f184dd6951dd47e0055fc30c5b0e95ad9abd5d41652c716f1f97c53591a4cb37

>  <std_smi>
Cc1sc2nc(SC(C)C)nc(N)c2c1C

>  <uuid>
b79aa8b7-138f-4964-9c84-2d60fec0dda8

$$$$
b79aa8b7-138f-4964-9c84-2d60fec0dda8
  rDOCK(R)          3D
libRbt.so/2013.1/901 2013/11/27
 18 19  0  0  0  0  0  0  0  0999 V2000
   -1.5932   33.6832    2.9816 C   0  0  0  0  0  0
   -1.5136   32.1912    3.0241 C   0  0  0  0  0  0
   -2.1374   31.3534    4.3857 S   0  0  0  0  0  0
   -1.7093   29.8608    3.7306 C   0  0  0  0  0  0
   -1.9133   28.6587    4.2978 N   0  0  0  0  0  0
   -1.5097   27.5345    3.6311 C   0  0  0  0  0  0
   -1.8398   26.0437    4.4889 S   0  0  0  0  0  0
   -0.1601   25.5191    4.9804 C   0  0  0  0  0  0
    0.5572   24.8515    3.8096 C   0  0  0  0  0  0
   -0.2836   24.5455    6.1513 C   0  0  0  0  0  0
   -0.9220   27.5112    2.4752 N   0  0  0  0  0  0
   -0.6903   28.7161    1.8620 C   0  0  0  0  0  0
   -0.1054   28.6983    0.7175 N   0  0  0  0  0  0
   -1.1002   29.9561    2.5015 C   0  0  0  0  0  0
   -0.9822   31.3270    2.0717 C   0  0  0  0  0  0
   -0.3650   31.7457    0.7743 C   0  0  0  0  0  0
   -2.3509   28.5507    5.2036 H   0  0  0  0  0  0
    0.0631   27.7043    0.5277 H   0  0  0  0  0  0
  1  2  1  0  0  0
  2  3  1  0  0  0
  3  4  1  0  0  0
  4  5  1  0  0  0
  5  6  1  0  0  0
  6  7  1  0  0  0
  7  8  1  0  0  0
  8  9  1  0  0  0
  8 10  1  0  0  0
  6 11  2  0  0  0
 11 12  1  0  0  0
 12 13  2  0  0  0
 12 14  1  0  0  0
 14 15  1  0  0  0
 15 16  1  0  0  0
 15  2  2  0  0  0
 14  4  2  0  0  0
  5 17  1  0  0  0
 13 18  1  0  0  0
M  END
>  <CHROM.0>
-59.88758699,69.05299059

>  <CHROM.1>
-109.16376229,-79.74815033,-1.13884892,28.81518515,3.42694934,1.80139237
1.09758915,-0.50219805

>  <Name>
b79aa8b7-138f-4964-9c84-2d60fec0dda8

>  <RI>
3.30151e+07

>  <Rbt.Current_Directory>
/data/work/jku/5V6S/work/40/8dba899c20c42488f2b1a17844994e

>  <Rbt.Executable>
rbdock ($Id: //depot/dev/client3/rdock/2013.1/src/exe/rbdock.cxx#4 $)

>  <Rbt.Library>
libRbt.so (2013.1, Build901 2013/11/27)

>  <Rbt.Parameter_File>
/rDock_2013.1_src/data/scripts/dock.prm

>  <Rbt.Receptor>
docking.prm

>  <SCORE>
-13.698

>  <SCORE.INTER>
-12.1686

>  <SCORE.INTER.CONST>
1

>  <SCORE.INTER.POLAR>
0

>  <SCORE.INTER.REPUL>
0.312677

>  <SCORE.INTER.ROT>
2

>  <SCORE.INTER.VDW>
-21.132

>  <SCORE.INTER.norm>
-0.760536

>  <SCORE.INTRA>
-0.0158888

>  <SCORE.INTRA.DIHEDRAL>
0.353519

>  <SCORE.INTRA.DIHEDRAL.0>
2.2183

>  <SCORE.INTRA.POLAR>
0

>  <SCORE.INTRA.POLAR.0>
0

>  <SCORE.INTRA.REPUL>
0

>  <SCORE.INTRA.REPUL.0>
0

>  <SCORE.INTRA.VDW>
-0.192648

>  <SCORE.INTRA.VDW.0>
-0.584403

>  <SCORE.INTRA.norm>
-0.000993049

>  <SCORE.RESTR>
0

>  <SCORE.RESTR.CAVITY>
0

>  <SCORE.RESTR.norm>
0

>  <SCORE.SYSTEM>
-1.51357

>  <SCORE.SYSTEM.CONST>
0

>  <SCORE.SYSTEM.DIHEDRAL>
0.404555

>  <SCORE.SYSTEM.POLAR>
-0.503017

>  <SCORE.SYSTEM.VDW>
-0.00559089

>  <SCORE.SYSTEM.norm>
-0.0945982

>  <SCORE.heavy>
16

>  <SCORE.norm>
-0.856128

>  <enum_code>
T

>  <enum_smi>
Cc1sc2[nH]c(SC(C)C)nc(=N)c2c1C

>  <sha256>
f184dd6951dd47e0055fc30c5b0e95ad9abd5d41652c716f1f97c53591a4cb37

>  <std_smi>
Cc1sc2nc(SC(C)C)nc(N)c2c1C

>  <uuid>
b79aa8b7-138f-4964-9c84-2d60fec0dda8

$$$$
b79aa8b7-138f-4964-9c84-2d60fec0dda8
  rDOCK(R)          3D
libRbt.so/2013.1/901 2013/11/27
 18 19  0  0  0  0  0  0  0  0999 V2000
   -0.7158   31.8127    0.5921 C   0  0  0  0  0  0
   -0.9975   31.0403    1.8403 C   0  0  0  0  0  0
   -0.9365   29.3257    1.8009 S   0  0  0  0  0  0
   -1.3324   29.2207    3.4357 C   0  0  0  0  0  0
   -1.4704   28.0875    4.1465 N   0  0  0  0  0  0
   -1.7919   28.1726    5.4734 C   0  0  0  0  0  0
   -1.9377   26.6194    6.2693 S   0  0  0  0  0  0
   -3.0738   25.7326    5.1464 C   0  0  0  0  0  0
   -4.5005   26.2520    5.3072 C   0  0  0  0  0  0
   -3.0115   24.2424    5.4776 C   0  0  0  0  0  0
   -1.9938   29.2707    6.1333 N   0  0  0  0  0  0
   -1.8675   30.4510    5.4459 C   0  0  0  0  0  0
   -2.0695   31.5419    6.0950 N   0  0  0  0  0  0
   -1.5166   30.4447    4.0347 C   0  0  0  0  0  0
   -1.3179   31.5273    3.1038 C   0  0  0  0  0  0
   -1.4468   32.9738    3.4646 C   0  0  0  0  0  0
   -1.3501   27.1698    3.7378 H   0  0  0  0  0  0
   -2.2991   31.2383    7.0476 H   0  0  0  0  0  0
  1  2  1  0  0  0
  2  3  1  0  0  0
  3  4  1  0  0  0
  4  5  1  0  0  0
  5  6  1  0  0  0
  6  7  1  0  0  0
  7  8  1  0  0  0
  8  9  1  0  0  0
  8 10  1  0  0  0
  6 11  2  0  0  0
 11 12  1  0  0  0
 12 13  2  0  0  0
 12 14  1  0  0  0
 14 15  1  0  0  0
 15 16  1  0  0  0
 15  2  2  0  0  0
 14  4  2  0  0  0
  5 17  1  0  0  0
 13 18  1  0  0  0
M  END
>  <CHROM.0>
-59.88758699,69.43114628

>  <CHROM.1>
-51.07327722,-74.35456466,-1.83435518,28.96113040,4.22038494,-0.40625555
-1.28403713,-2.53702453

>  <Name>
b79aa8b7-138f-4964-9c84-2d60fec0dda8

>  <RI>
3.30151e+07

>  <Rbt.Current_Directory>
/data/work/jku/5V6S/work/40/8dba899c20c42488f2b1a17844994e

>  <Rbt.Executable>
rbdock ($Id: //depot/dev/client3/rdock/2013.1/src/exe/rbdock.cxx#4 $)

>  <Rbt.Library>
libRbt.so (2013.1, Build901 2013/11/27)

>  <Rbt.Parameter_File>
/rDock_2013.1_src/data/scripts/dock.prm

>  <Rbt.Receptor>
docking.prm

>  <SCORE>
-14.9364

>  <SCORE.INTER>
-13.3202

>  <SCORE.INTER.CONST>
1

>  <SCORE.INTER.POLAR>
0

>  <SCORE.INTER.REPUL>
0.0857792

>  <SCORE.INTER.ROT>
2

>  <SCORE.INTER.VDW>
-21.1491

>  <SCORE.INTER.norm>
-0.832511

>  <SCORE.INTRA>
-0.104025

>  <SCORE.INTRA.DIHEDRAL>
0.118341

>  <SCORE.INTRA.DIHEDRAL.0>
2.2183

>  <SCORE.INTRA.POLAR>
0

>  <SCORE.INTRA.POLAR.0>
0

>  <SCORE.INTRA.REPUL>
0

>  <SCORE.INTRA.REPUL.0>
0

>  <SCORE.INTRA.VDW>
-0.163196

>  <SCORE.INTRA.VDW.0>
-0.584403

>  <SCORE.INTRA.norm>
-0.00650158

>  <SCORE.RESTR>
0.00018069

>  <SCORE.RESTR.CAVITY>
0.00018069

>  <SCORE.RESTR.norm>
1.12931e-05

>  <SCORE.SYSTEM>
-1.51239

>  <SCORE.SYSTEM.CONST>
0

>  <SCORE.SYSTEM.DIHEDRAL>
0.437717

>  <SCORE.SYSTEM.POLAR>
-0.503175

>  <SCORE.SYSTEM.VDW>
-0.0204553

>  <SCORE.SYSTEM.norm>
-0.0945244

>  <SCORE.heavy>
16

>  <SCORE.norm>
-0.933526

>  <enum_code>
T

>  <enum_smi>
Cc1sc2[nH]c(SC(C)C)nc(=N)c2c1C

>  <sha256>
f184dd6951dd47e0055fc30c5b0e95ad9abd5d41652c716f1f97c53591a4cb37

>  <std_smi>
Cc1sc2nc(SC(C)C)nc(N)c2c1C

>  <uuid>
b79aa8b7-138f-4964-9c84-2d60fec0dda8

$$$$
9fa9adb1-e22c-43b3-b7e4-db346eb22e34
  rDOCK(R)          3D
libRbt.so/2013.1/901 2013/11/27
 18 19  0  0  0  0  0  0  0  0999 V2000
   -1.5511   33.6745    2.8124 C   0  0  0  0  0  0
   -1.5050   32.1913    3.0033 C   0  0  0  0  0  0
   -1.9887   31.5379    4.5029 S   0  0  0  0  0  0
   -1.6862   29.9445    3.9946 C   0  0  0  0  0  0
   -1.9109   28.9049    4.8542 N   0  0  0  0  0  0
   -1.6270   27.7528    4.3290 C   0  0  0  0  0  0
   -1.8352   26.2688    5.2327 S   0  0  0  0  0  0
   -0.1069   25.7079    5.4302 C   0  0  0  0  0  0
    0.3969   25.0635    4.1412 C   0  0  0  0  0  0
   -0.0576   24.7030    6.5802 C   0  0  0  0  0  0
   -1.1634   27.5829    3.0575 N   0  0  0  0  0  0
   -0.9224   28.5601    2.1436 C   0  0  0  0  0  0
   -0.4898   28.3178    0.9549 N   0  0  0  0  0  0
   -1.2154   29.8904    2.6827 C   0  0  0  0  0  0
   -1.1061   31.2146    2.0975 C   0  0  0  0  0  0
   -0.6327   31.5256    0.7121 C   0  0  0  0  0  0
   -0.9879   26.6389    2.7488 H   0  0  0  0  0  0
   -0.3733   29.1738    0.4179 H   0  0  0  0  0  0
  1  2  1  0  0  0
  2  3  1  0  0  0
  3  4  1  0  0  0
  4  5  1  0  0  0
  5  6  2  0  0  0
  6  7  1  0  0  0
  7  8  1  0  0  0
  8  9  1  0  0  0
  8 10  1  0  0  0
  6 11  1  0  0  0
 11 12  1  0  0  0
 12 13  2  0  0  0
 12 14  1  0  0  0
 14 15  1  0  0  0
 15 16  1  0  0  0
 15  2  2  0  0  0
 14  4  2  0  0  0
 11 17  1  0  0  0
 13 18  1  0  0  0
M  END
>  <CHROM.0>
-59.88758699,69.04083994

>  <CHROM.1>
-113.22095289,-78.13059361,-1.18336279,28.87832896,3.72402718,1.87382942
1.19246937,-0.66497660

>  <Name>
9fa9adb1-e22c-43b3-b7e4-db346eb22e34

>  <RI>
1.3002e+07

>  <Rbt.Current_Directory>
/data/work/jku/5V6S/work/40/8dba899c20c42488f2b1a17844994e

>  <Rbt.Executable>
rbdock ($Id: //depot/dev/client3/rdock/2013.1/src/exe/rbdock.cxx#4 $)

>  <Rbt.Library>
libRbt.so (2013.1, Build901 2013/11/27)

>  <Rbt.Parameter_File>
/rDock_2013.1_src/data/scripts/dock.prm

>  <Rbt.Receptor>
docking.prm

>  <SCORE>
-14.9724

>  <SCORE.INTER>
-13.9905

>  <SCORE.INTER.CONST>
1

>  <SCORE.INTER.POLAR>
-0.268148

>  <SCORE.INTER.REPUL>
0

>  <SCORE.INTER.ROT>
2

>  <SCORE.INTER.VDW>
-20.4788

>  <SCORE.INTER.norm>
-0.874409

>  <SCORE.INTRA>
0.531712

>  <SCORE.INTRA.DIHEDRAL>
0.183493

>  <SCORE.INTRA.DIHEDRAL.0>
2.32824

>  <SCORE.INTRA.POLAR>
0

>  <SCORE.INTRA.POLAR.0>
0

>  <SCORE.INTRA.REPUL>
0

>  <SCORE.INTRA.REPUL.0>
0

>  <SCORE.INTRA.VDW>
0.439965

>  <SCORE.INTRA.VDW.0>
-0.552056

>  <SCORE.INTRA.norm>
0.033232

>  <SCORE.RESTR>
0

>  <SCORE.RESTR.CAVITY>
0

>  <SCORE.RESTR.norm>
0

>  <SCORE.SYSTEM>
-1.51359

>  <SCORE.SYSTEM.CONST>
0

>  <SCORE.SYSTEM.DIHEDRAL>
0.40351

>  <SCORE.SYSTEM.POLAR>
-0.50301

>  <SCORE.SYSTEM.VDW>
-0.00510789

>  <SCORE.SYSTEM.norm>
-0.0945992

>  <SCORE.heavy>
16

>  <SCORE.norm>
-0.935776

>  <enum_code>
T

>  <enum_smi>
Cc1sc2nc(SC(C)C)[nH]c(=N)c2c1C

>  <sha256>
f184dd6951dd47e0055fc30c5b0e95ad9abd5d41652c716f1f97c53591a4cb37

>  <std_smi>
Cc1sc2nc(SC(C)C)nc(N)c2c1C

>  <uuid>
9fa9adb1-e22c-43b3-b7e4-db346eb22e34

$$$$
9fa9adb1-e22c-43b3-b7e4-db346eb22e34
  rDOCK(R)          3D
libRbt.so/2013.1/901 2013/11/27
 18 19  0  0  0  0  0  0  0  0999 V2000
   -0.6652   31.9902    0.4957 C   0  0  0  0  0  0
   -0.9773   31.2149    1.7367 C   0  0  0  0  0  0
   -0.8810   29.5125    1.6911 S   0  0  0  0  0  0
   -1.3332   29.3652    3.3228 C   0  0  0  0  0  0
   -1.4334   28.1243    3.8887 N   0  0  0  0  0  0
   -1.7953   28.1715    5.1340 C   0  0  0  0  0  0
   -1.9893   26.7105    6.0774 S   0  0  0  0  0  0
   -3.0430   25.6967    4.9807 C   0  0  0  0  0  0
   -4.4777   26.2182    4.9858 C   0  0  0  0  0  0
   -3.0018   24.2523    5.4776 C   0  0  0  0  0  0
   -2.0426   29.3257    5.8175 N   0  0  0  0  0  0
   -1.9582   30.5920    5.3303 C   0  0  0  0  0  0
   -2.2018   31.6361    6.0441 N   0  0  0  0  0  0
   -1.5621   30.6048    3.9201 C   0  0  0  0  0  0
   -1.3546   31.6964    2.9855 C   0  0  0  0  0  0
   -1.5154   33.1534    3.2880 C   0  0  0  0  0  0
   -2.3056   29.2442    6.7878 H   0  0  0  0  0  0
   -2.0835   32.4919    5.5071 H   0  0  0  0  0  0
  1  2  1  0  0  0
  2  3  1  0  0  0
  3  4  1  0  0  0
  4  5  1  0  0  0
  5  6  2  0  0  0
  6  7  1  0  0  0
  7  8  1  0  0  0
  8  9  1  0  0  0
  8 10  1  0  0  0
  6 11  1  0  0  0
 11 12  1  0  0  0
 12 13  2  0  0  0
 12 14  1  0  0  0
 14 15  1  0  0  0
 15 16  1  0  0  0
 15  2  2  0  0  0
 14  4  2  0  0  0
 11 17  1  0  0  0
 13 18  1  0  0  0
M  END
>  <CHROM.0>
-59.88758699,69.15028069

>  <CHROM.1>
-49.79898771,-74.14403420,-1.84977726,29.07510246,4.06705182,-0.53740736
-1.26796410,-2.64816546

>  <Name>
9fa9adb1-e22c-43b3-b7e4-db346eb22e34

>  <RI>
1.3002e+07

>  <Rbt.Current_Directory>
/data/work/jku/5V6S/work/40/8dba899c20c42488f2b1a17844994e

>  <Rbt.Executable>
rbdock ($Id: //depot/dev/client3/rdock/2013.1/src/exe/rbdock.cxx#4 $)

>  <Rbt.Library>
libRbt.so (2013.1, Build901 2013/11/27)

>  <Rbt.Parameter_File>
/rDock_2013.1_src/data/scripts/dock.prm

>  <Rbt.Receptor>
docking.prm

>  <SCORE>
-17.2949

>  <SCORE.INTER>
-15.6221

>  <SCORE.INTER.CONST>
1

>  <SCORE.INTER.POLAR>
-0.526374

>  <SCORE.INTER.REPUL>
0

>  <SCORE.INTER.ROT>
2

>  <SCORE.INTER.VDW>
-21.2325

>  <SCORE.INTER.norm>
-0.976384

>  <SCORE.INTRA>
-0.159372

>  <SCORE.INTRA.DIHEDRAL>
-0.0275261

>  <SCORE.INTRA.DIHEDRAL.0>
2.32824

>  <SCORE.INTRA.POLAR>
0

>  <SCORE.INTRA.POLAR.0>
0

>  <SCORE.INTRA.REPUL>
0

>  <SCORE.INTRA.REPUL.0>
0

>  <SCORE.INTRA.VDW>
-0.145609

>  <SCORE.INTRA.VDW.0>
-0.552056

>  <SCORE.INTRA.norm>
-0.00996074

>  <SCORE.RESTR>
0

>  <SCORE.RESTR.CAVITY>
0

>  <SCORE.RESTR.norm>
0

>  <SCORE.SYSTEM>
-1.5134

>  <SCORE.SYSTEM.CONST>
0

>  <SCORE.SYSTEM.DIHEDRAL>
0.412967

>  <SCORE.SYSTEM.POLAR>
-0.503069

>  <SCORE.SYSTEM.VDW>
-0.00944607

>  <SCORE.SYSTEM.norm>
-0.0945872

>  <SCORE.heavy>
16

>  <SCORE.norm>
-1.08093

>  <enum_code>
T

>  <enum_smi>
Cc1sc2nc(SC(C)C)[nH]c(=N)c2c1C

>  <sha256>
f184dd6951dd47e0055fc30c5b0e95ad9abd5d41652c716f1f97c53591a4cb37

>  <std_smi>
Cc1sc2nc(SC(C)C)nc(N)c2c1C

>  <uuid>
9fa9adb1-e22c-43b3-b7e4-db346eb22e34

$$$$
9fa9adb1-e22c-43b3-b7e4-db346eb22e34
  rDOCK(R)          3D
libRbt.so/2013.1/901 2013/11/27
 18 19  0  0  0  0  0  0  0  0999 V2000
   -0.5129   32.0351    0.4786 C   0  0  0  0  0  0
   -0.8873   31.2595    1.7021 C   0  0  0  0  0  0
   -0.8875   29.5553    1.6295 S   0  0  0  0  0  0
   -1.3717   29.4085    3.2521 C   0  0  0  0  0  0
   -1.5510   28.1666    3.7959 N   0  0  0  0  0  0
   -1.9281   28.2148    5.0366 C   0  0  0  0  0  0
   -2.2192   26.7527    5.9528 S   0  0  0  0  0  0
   -1.5220   25.4755    4.8467 C   0  0  0  0  0  0
   -2.0324   24.0914    5.2396 C   0  0  0  0  0  0
    0.0013   25.5291    4.9529 C   0  0  0  0  0  0
   -2.1193   29.3704    5.7357 N   0  0  0  0  0  0
   -1.9556   30.6373    5.2708 C   0  0  0  0  0  0
   -2.1498   31.6822    5.9983 N   0  0  0  0  0  0
   -1.5384   30.6496    3.8666 C   0  0  0  0  0  0
   -1.2551   31.7421    2.9533 C   0  0  0  0  0  0
   -1.3369   33.2010    3.2776 C   0  0  0  0  0  0
   -2.4009   29.2888    6.7007 H   0  0  0  0  0  0
   -1.9749   32.5382    5.4773 H   0  0  0  0  0  0
  1  2  1  0  0  0
  2  3  1  0  0  0
  3  4  1  0  0  0
  4  5  1  0  0  0
  5  6  2  0  0  0
  6  7  1  0  0  0
  7  8  1  0  0  0
  8  9  1  0  0  0
  8 10  1  0  0  0
  6 11  1  0  0  0
 11 12  1  0  0  0
 12 13  2  0  0  0
 12 14  1  0  0  0
 14 15  1  0  0  0
 15 16  1  0  0  0
 15  2  2  0  0  0
 14  4  2  0  0  0
 11 17  1  0  0  0
 13 18  1  0  0  0
M  END
>  <CHROM.0>
-59.88758699,69.48592915

>  <CHROM.1>
11.44804865,-162.92717688,-1.46431778,29.04992660,3.98976619,-1.31047192
-1.23563624,2.92032071

>  <Name>
9fa9adb1-e22c-43b3-b7e4-db346eb22e34

>  <RI>
1.3002e+07

>  <Rbt.Current_Directory>
/data/work/jku/5V6S/work/40/8dba899c20c42488f2b1a17844994e

>  <Rbt.Executable>
rbdock ($Id: //depot/dev/client3/rdock/2013.1/src/exe/rbdock.cxx#4 $)

>  <Rbt.Library>
libRbt.so (2013.1, Build901 2013/11/27)

>  <Rbt.Parameter_File>
/rDock_2013.1_src/data/scripts/dock.prm

>  <Rbt.Receptor>
docking.prm

>  <SCORE>
-17.4808

>  <SCORE.INTER>
-16.0927

>  <SCORE.INTER.CONST>
1

>  <SCORE.INTER.POLAR>
-0.502898

>  <SCORE.INTER.REPUL>
0

>  <SCORE.INTER.ROT>
2

>  <SCORE.INTER.VDW>
-21.7829

>  <SCORE.INTER.norm>
-1.0058

>  <SCORE.INTRA>
0.124023

>  <SCORE.INTRA.DIHEDRAL>
0.136495

>  <SCORE.INTRA.DIHEDRAL.0>
2.32824

>  <SCORE.INTRA.POLAR>
0

>  <SCORE.INTRA.POLAR.0>
0

>  <SCORE.INTRA.REPUL>
0

>  <SCORE.INTRA.REPUL.0>
0

>  <SCORE.INTRA.VDW>
0.0557751

>  <SCORE.INTRA.VDW.0>
-0.552056

>  <SCORE.INTRA.norm>
0.00775143

>  <SCORE.RESTR>
0

>  <SCORE.RESTR.CAVITY>
0

>  <SCORE.RESTR.norm>
0

>  <SCORE.SYSTEM>
-1.51211

>  <SCORE.SYSTEM.CONST>
0

>  <SCORE.SYSTEM.DIHEDRAL>
0.442625

>  <SCORE.SYSTEM.POLAR>
-0.503188

>  <SCORE.SYSTEM.VDW>
-0.022582

>  <SCORE.SYSTEM.norm>
-0.0945068

>  <SCORE.heavy>
16

>  <SCORE.norm>
-1.09255

>  <enum_code>
T

>  <enum_smi>
Cc1sc2nc(SC(C)C)[nH]c(=N)c2c1C

>  <sha256>
f184dd6951dd47e0055fc30c5b0e95ad9abd5d41652c716f1f97c53591a4cb37

>  <std_smi>
Cc1sc2nc(SC(C)C)nc(N)c2c1C

>  <uuid>
9fa9adb1-e22c-43b3-b7e4-db346eb22e34

$$$$
9fa9adb1-e22c-43b3-b7e4-db346eb22e34
  rDOCK(R)          3D
libRbt.so/2013.1/901 2013/11/27
 18 19  0  0  0  0  0  0  0  0999 V2000
   -0.4617   32.0171    0.4934 C   0  0  0  0  0  0
   -0.8546   31.2472    1.7146 C   0  0  0  0  0  0
   -0.8772   29.5431    1.6428 S   0  0  0  0  0  0
   -1.3743   29.4036    3.2621 C   0  0  0  0  0  0
   -1.5738   28.1645    3.8052 N   0  0  0  0  0  0
   -1.9587   28.2184    5.0433 C   0  0  0  0  0  0
   -2.2755   26.7607    5.9581 S   0  0  0  0  0  0
   -1.5064   25.4834    4.9009 C   0  0  0  0  0  0
   -2.0433   24.0996    5.2577 C   0  0  0  0  0  0
    0.0064   25.5355    5.1097 C   0  0  0  0  0  0
   -2.1392   29.3767    5.7406 N   0  0  0  0  0  0
   -1.9553   30.6411    5.2762 C   0  0  0  0  0  0
   -2.1405   31.6889    6.0020 N   0  0  0  0  0  0
   -1.5285   30.6471    3.8749 C   0  0  0  0  0  0
   -1.2244   31.7353    2.9631 C   0  0  0  0  0  0
   -1.2890   33.1953    3.2863 C   0  0  0  0  0  0
   -2.4284   29.2994    6.7037 H   0  0  0  0  0  0
   -1.9506   32.5422    5.4818 H   0  0  0  0  0  0
  1  2  1  0  0  0
  2  3  1  0  0  0
  3  4  1  0  0  0
  4  5  1  0  0  0
  5  6  2  0  0  0
  6  7  1  0  0  0
  7  8  1  0  0  0
  8  9  1  0  0  0
  8 10  1  0  0  0
  6 11  1  0  0  0
 11 12  1  0  0  0
 12 13  2  0  0  0
 12 14  1  0  0  0
 14 15  1  0  0  0
 15 16  1  0  0  0
 15  2  2  0  0  0
 14  4  2  0  0  0
 11 17  1  0  0  0
 13 18  1  0  0  0
M  END
>  <CHROM.0>
-59.88758699,68.35643927

>  <CHROM.1>
14.42755113,-161.50254220,-1.46374184,29.04900559,4.01016727,-1.29048002
-1.23049053,2.93253851

>  <Name>
9fa9adb1-e22c-43b3-b7e4-db346eb22e34

>  <RI>
1.3002e+07

>  <Rbt.Current_Directory>
/data/work/jku/5V6S/work/40/8dba899c20c42488f2b1a17844994e

>  <Rbt.Executable>
rbdock ($Id: //depot/dev/client3/rdock/2013.1/src/exe/rbdock.cxx#4 $)

>  <Rbt.Library>
libRbt.so (2013.1, Build901 2013/11/27)

>  <Rbt.Parameter_File>
/rDock_2013.1_src/data/scripts/dock.prm

>  <Rbt.Receptor>
docking.prm

>  <SCORE>
-17.5138

>  <SCORE.INTER>
-16.1253

>  <SCORE.INTER.CONST>
1

>  <SCORE.INTER.POLAR>
-0.492058

>  <SCORE.INTER.REPUL>
0

>  <SCORE.INTER.ROT>
2

>  <SCORE.INTER.VDW>
-21.8523

>  <SCORE.INTER.norm>
-1.00783

>  <SCORE.INTRA>
0.123641

>  <SCORE.INTRA.DIHEDRAL>
0.211536

>  <SCORE.INTRA.DIHEDRAL.0>
2.32824

>  <SCORE.INTRA.POLAR>
0

>  <SCORE.INTRA.POLAR.0>
0

>  <SCORE.INTRA.REPUL>
0

>  <SCORE.INTRA.REPUL.0>
0

>  <SCORE.INTRA.VDW>
0.0178733

>  <SCORE.INTRA.VDW.0>
-0.552056

>  <SCORE.INTRA.norm>
0.00772757

>  <SCORE.RESTR>
0

>  <SCORE.RESTR.CAVITY>
0

>  <SCORE.RESTR.norm>
0

>  <SCORE.SYSTEM>
-1.51221

>  <SCORE.SYSTEM.CONST>
0

>  <SCORE.SYSTEM.DIHEDRAL>
0.346766

>  <SCORE.SYSTEM.POLAR>
-0.502424

>  <SCORE.SYSTEM.VDW>
0.0226452

>  <SCORE.SYSTEM.norm>
-0.0945134

>  <SCORE.heavy>
16

>  <SCORE.norm>
-1.09462

>  <enum_code>
T

>  <enum_smi>
Cc1sc2nc(SC(C)C)[nH]c(=N)c2c1C

>  <sha256>
f184dd6951dd47e0055fc30c5b0e95ad9abd5d41652c716f1f97c53591a4cb37

>  <std_smi>
Cc1sc2nc(SC(C)C)nc(N)c2c1C

>  <uuid>
9fa9adb1-e22c-43b3-b7e4-db346eb22e34

$$$$
9fa9adb1-e22c-43b3-b7e4-db346eb22e34
  rDOCK(R)          3D
libRbt.so/2013.1/901 2013/11/27
 18 19  0  0  0  0  0  0  0  0999 V2000
   -0.5323   32.1764    0.5435 C   0  0  0  0  0  0
   -0.8950   31.3599    1.7437 C   0  0  0  0  0  0
   -0.8278   29.6589    1.6342 S   0  0  0  0  0  0
   -1.3309   29.4575    3.2452 C   0  0  0  0  0  0
   -1.4700   28.1978    3.7590 N   0  0  0  0  0  0
   -1.8678   28.2038    4.9941 C   0  0  0  0  0  0
   -2.1158   26.7115    5.8736 S   0  0  0  0  0  0
   -3.3548   25.8657    4.8293 C   0  0  0  0  0  0
   -4.7499   26.4259    5.0948 C   0  0  0  0  0  0
   -3.3129   24.3724    5.1501 C   0  0  0  0  0  0
   -2.1145   29.3352    5.7149 N   0  0  0  0  0  0
   -1.9930   30.6176    5.2802 C   0  0  0  0  0  0
   -2.2389   31.6378    6.0270 N   0  0  0  0  0  0
   -1.5551   30.6772    3.8836 C   0  0  0  0  0  0
   -1.3005   31.7999    2.9989 C   0  0  0  0  0  0
   -1.4440   33.2469    3.3534 C   0  0  0  0  0  0
   -2.4076   29.2214    6.6732 H   0  0  0  0  0  0
   -2.0894   32.5112    5.5276 H   0  0  0  0  0  0
  1  2  1  0  0  0
  2  3  1  0  0  0
  3  4  1  0  0  0
  4  5  1  0  0  0
  5  6  2  0  0  0
  6  7  1  0  0  0
  7  8  1  0  0  0
  8  9  1  0  0  0
  8 10  1  0  0  0
  6 11  1  0  0  0
 11 12  1  0  0  0
 12 13  2  0  0  0
 12 14  1  0  0  0
 14 15  1  0  0  0
 15 16  1  0  0  0
 15  2  2  0  0  0
 14  4  2  0  0  0
 11 17  1  0  0  0
 13 18  1  0  0  0
M  END
>  <CHROM.0>
-59.88758699,69.56834311

>  <CHROM.1>
-58.01719172,-79.48906290,-1.90421291,29.16548202,3.99243043,-0.53799308
-1.20978908,-2.63695598

>  <Name>
9fa9adb1-e22c-43b3-b7e4-db346eb22e34

>  <RI>
1.3002e+07

>  <Rbt.Current_Directory>
/data/work/jku/5V6S/work/40/8dba899c20c42488f2b1a17844994e

>  <Rbt.Executable>
rbdock ($Id: //depot/dev/client3/rdock/2013.1/src/exe/rbdock.cxx#4 $)

>  <Rbt.Library>
libRbt.so (2013.1, Build901 2013/11/27)

>  <Rbt.Parameter_File>
/rDock_2013.1_src/data/scripts/dock.prm

>  <Rbt.Receptor>
docking.prm

>  <SCORE>
-17.2469

>  <SCORE.INTER>
-15.6574

>  <SCORE.INTER.CONST>
1

>  <SCORE.INTER.POLAR>
-0.545521

>  <SCORE.INTER.REPUL>
0

>  <SCORE.INTER.ROT>
2

>  <SCORE.INTER.VDW>
-21.2026

>  <SCORE.INTER.norm>
-0.978588

>  <SCORE.INTRA>
-0.0779053

>  <SCORE.INTRA.DIHEDRAL>
0.241446

>  <SCORE.INTRA.DIHEDRAL.0>
2.32824

>  <SCORE.INTRA.POLAR>
0

>  <SCORE.INTRA.POLAR.0>
0

>  <SCORE.INTRA.REPUL>
0

>  <SCORE.INTRA.REPUL.0>
0

>  <SCORE.INTRA.VDW>
-0.198628

>  <SCORE.INTRA.VDW.0>
-0.552056

>  <SCORE.INTRA.norm>
-0.00486908

>  <SCORE.RESTR>
0

>  <SCORE.RESTR.CAVITY>
0

>  <SCORE.RESTR.norm>
0

>  <SCORE.SYSTEM>
-1.51163

>  <SCORE.SYSTEM.CONST>
0

>  <SCORE.SYSTEM.DIHEDRAL>
0.450057

>  <SCORE.SYSTEM.POLAR>
-0.503203

>  <SCORE.SYSTEM.VDW>
-0.0257686

>  <SCORE.SYSTEM.norm>
-0.094477

>  <SCORE.heavy>
16

>  <SCORE.norm>
-1.07793

>  <enum_code>
T

>  <enum_smi>
Cc1sc2nc(SC(C)C)[nH]c(=N)c2c1C

>  <sha256>
f184dd6951dd47e0055fc30c5b0e95ad9abd5d41652c716f1f97c53591a4cb37

>  <std_smi>
Cc1sc2nc(SC(C)C)nc(N)c2c1C

>  <uuid>
9fa9adb1-e22c-43b3-b7e4-db346eb22e34

$$$$
74a169dd-52ba-4a55-be95-bca90e98f128
  rDOCK(R)          3D
libRbt.so/2013.1/901 2013/11/27
 20 21  0  0  0  0  0  0  0  0999 V2000
   -0.2777   31.9746    0.3736 C   0  0  0  0  0  0
   -0.7424   31.1908    1.5673 C   0  0  0  0  0  0
   -0.8457   29.4909    1.4600 S   0  0  0  0  0  0
   -1.3863   29.3741    3.0485 C   0  0  0  0  0  0
   -1.6677   28.1850    3.6161 N   0  3  0  0  0  0
   -2.0710   28.1795    4.8743 C   0  0  0  0  0  0
   -2.4917   26.6712    5.6587 S   0  0  0  0  0  0
   -1.3114   25.4710    4.8965 C   0  0  0  0  0  0
   -1.8054   24.0345    5.0331 C   0  0  0  0  0  0
    0.0993   25.6402    5.4508 C   0  0  0  0  0  0
   -2.2295   29.3287    5.5250 N   0  3  0  0  0  0
   -1.9834   30.5531    5.0548 C   0  0  0  0  0  0
   -2.1931   31.6291    5.8744 N   0  0  0  0  0  0
   -1.5175   30.5811    3.7160 C   0  0  0  0  0  0
   -1.1248   31.6651    2.8195 C   0  0  0  0  0  0
   -1.1268   33.1244    3.1817 C   0  0  0  0  0  0
   -1.5770   27.3229    3.0774 H   0  0  0  0  0  0
   -2.5841   29.2655    6.4792 H   0  0  0  0  0  0
   -2.0379   32.5767    5.5349 H   0  0  0  0  0  0
   -2.5599   31.6054    6.8203 H   0  0  0  0  0  0
  1  2  1  0  0  0
  2  3  1  0  0  0
  3  4  1  0  0  0
  4  5  2  0  0  0
  5  6  1  0  0  0
  6  7  1  0  0  0
  7  8  1  0  0  0
  8  9  1  0  0  0
  8 10  1  0  0  0
  6 11  2  0  0  0
 11 12  1  0  0  0
 12 13  1  0  0  0
 12 14  2  0  0  0
 14 15  1  0  0  0
 15 16  1  0  0  0
 15  2  2  0  0  0
 14  4  1  0  0  0
  5 17  1  0  0  0
 11 18  1  0  0  0
 13 19  1  0  0  0
 13 20  1  0  0  0
M  END
>  <CHROM.0>
-59.88758699,-62.74918561

>  <CHROM.1>
34.26142199,-159.19223108,-1.45253144,29.00832396,3.87104394,-1.27878019
-1.20340503,2.93311820

>  <Name>
74a169dd-52ba-4a55-be95-bca90e98f128

>  <RI>
2.75592e+07

>  <Rbt.Current_Directory>
/data/work/jku/5V6S/work/40/8dba899c20c42488f2b1a17844994e

>  <Rbt.Executable>
rbdock ($Id: //depot/dev/client3/rdock/2013.1/src/exe/rbdock.cxx#4 $)

>  <Rbt.Library>
libRbt.so (2013.1, Build901 2013/11/27)

>  <Rbt.Parameter_File>
/rDock_2013.1_src/data/scripts/dock.prm

>  <Rbt.Receptor>
docking.prm

>  <SCORE>
-16.0988

>  <SCORE.INTER>
-17.5119

>  <SCORE.INTER.CONST>
1

>  <SCORE.INTER.POLAR>
-0.747921

>  <SCORE.INTER.REPUL>
0

>  <SCORE.INTER.ROT>
2

>  <SCORE.INTER.VDW>
-22.369

>  <SCORE.INTER.norm>
-1.0945

>  <SCORE.INTRA>
0.391334

>  <SCORE.INTRA.DIHEDRAL>
0.225522

>  <SCORE.INTRA.DIHEDRAL.0>
2.24308

>  <SCORE.INTRA.POLAR>
0

>  <SCORE.INTRA.POLAR.0>
0

>  <SCORE.INTRA.REPUL>
0

>  <SCORE.INTRA.REPUL.0>
0

>  <SCORE.INTRA.VDW>
0.278573

>  <SCORE.INTRA.VDW.0>
-1.02269

>  <SCORE.INTRA.norm>
0.0244584

>  <SCORE.RESTR>
0

>  <SCORE.RESTR.CAVITY>
0

>  <SCORE.RESTR.norm>
0

>  <SCORE.SYSTEM>
1.02181

>  <SCORE.SYSTEM.CONST>
0

>  <SCORE.SYSTEM.DIHEDRAL>
0.0448643

>  <SCORE.SYSTEM.REPUL>
0.142307

>  <SCORE.SYSTEM.VDW>
0.287844

>  <SCORE.SYSTEM.norm>
0.0638632

>  <SCORE.heavy>
16

>  <SCORE.norm>
-1.00617

>  <enum_code>
M

>  <enum_smi>
Cc1sc2[nH+]c(SC(C)C)[nH+]c(N)c2c1C

>  <sha256>
f184dd6951dd47e0055fc30c5b0e95ad9abd5d41652c716f1f97c53591a4cb37

>  <std_smi>
Cc1sc2nc(SC(C)C)nc(N)c2c1C

>  <uuid>
74a169dd-52ba-4a55-be95-bca90e98f128

$$$$
74a169dd-52ba-4a55-be95-bca90e98f128
  rDOCK(R)          3D
libRbt.so/2013.1/901 2013/11/27
 20 21  0  0  0  0  0  0  0  0999 V2000
   -0.2906   32.2980    0.3453 C   0  0  0  0  0  0
   -0.7122   31.4173    1.4863 C   0  0  0  0  0  0
   -0.7041   29.7235    1.2794 S   0  0  0  0  0  0
   -1.2476   29.4792    2.8524 C   0  0  0  0  0  0
   -1.4554   28.2433    3.3469 N   0  3  0  0  0  0
   -1.8667   28.1380    4.5981 C   0  0  0  0  0  0
   -2.1943   26.5623    5.2889 S   0  0  0  0  0  0
   -0.5034   25.8448    5.4904 C   0  0  0  0  0  0
    0.0934   25.4295    4.1497 C   0  0  0  0  0  0
   -0.4955   24.6966    6.4942 C   0  0  0  0  0  0
   -2.1041   29.2345    5.3126 N   0  3  0  0  0  0
   -1.9347   30.4977    4.9170 C   0  0  0  0  0  0
   -2.2197   31.5080    5.7952 N   0  0  0  0  0  0
   -1.4618   30.6340    3.5873 C   0  0  0  0  0  0
   -1.1337   31.7917    2.7596 C   0  0  0  0  0  0
   -1.2331   33.2241    3.2058 C   0  0  0  0  0  0
   -1.3049   27.4218    2.7600 H   0  0  0  0  0  0
   -2.4610   29.0928    6.2575 H   0  0  0  0  0  0
   -2.1240   32.4819    5.5131 H   0  0  0  0  0  0
   -2.5912   31.4053    6.7341 H   0  0  0  0  0  0
  1  2  1  0  0  0
  2  3  1  0  0  0
  3  4  1  0  0  0
  4  5  2  0  0  0
  5  6  1  0  0  0
  6  7  1  0  0  0
  7  8  1  0  0  0
  8  9  1  0  0  0
  8 10  1  0  0  0
  6 11  2  0  0  0
 11 12  1  0  0  0
 12 13  1  0  0  0
 12 14  2  0  0  0
 14 15  1  0  0  0
 15 16  1  0  0  0
 15  2  2  0  0  0
 14  4  1  0  0  0
  5 17  1  0  0  0
 11 18  1  0  0  0
 13 19  1  0  0  0
 13 20  1  0  0  0
M  END
>  <CHROM.0>
-59.88758699,68.81557533

>  <CHROM.1>
71.88538425,-73.58227747,-1.24628812,29.10380615,3.76671976,-1.51235261,-1.16114688
2.67149475

>  <Name>
74a169dd-52ba-4a55-be95-bca90e98f128

>  <RI>
2.75592e+07

>  <Rbt.Current_Directory>
/data/work/jku/5V6S/work/40/8dba899c20c42488f2b1a17844994e

>  <Rbt.Executable>
rbdock ($Id: //depot/dev/client3/rdock/2013.1/src/exe/rbdock.cxx#4 $)

>  <Rbt.Library>
libRbt.so (2013.1, Build901 2013/11/27)

>  <Rbt.Parameter_File>
/rDock_2013.1_src/data/scripts/dock.prm

>  <Rbt.Receptor>
docking.prm

>  <SCORE>
-19.5227

>  <SCORE.INTER>
-18.3505

>  <SCORE.INTER.CONST>
1

>  <SCORE.INTER.POLAR>
-0.84342

>  <SCORE.INTER.REPUL>
0

>  <SCORE.INTER.ROT>
2

>  <SCORE.INTER.VDW>
-22.8828

>  <SCORE.INTER.norm>
-1.1469

>  <SCORE.INTRA>
0.341417

>  <SCORE.INTRA.DIHEDRAL>
0.174562

>  <SCORE.INTRA.DIHEDRAL.0>
2.24308

>  <SCORE.INTRA.POLAR>
0

>  <SCORE.INTRA.POLAR.0>
0

>  <SCORE.INTRA.REPUL>
0

>  <SCORE.INTRA.REPUL.0>
0

>  <SCORE.INTRA.VDW>
0.254137

>  <SCORE.INTRA.VDW.0>
-1.02269

>  <SCORE.INTRA.norm>
0.0213386

>  <SCORE.RESTR>
0

>  <SCORE.RESTR.CAVITY>
0

>  <SCORE.RESTR.norm>
0

>  <SCORE.SYSTEM>
-1.51363

>  <SCORE.SYSTEM.CONST>
0

>  <SCORE.SYSTEM.DIHEDRAL>
0.384375

>  <SCORE.SYSTEM.POLAR>
-0.502859

>  <SCORE.SYSTEM.VDW>
0.00390755

>  <SCORE.SYSTEM.norm>
-0.0946017

>  <SCORE.heavy>
16

>  <SCORE.norm>
-1.22017

>  <enum_code>
M

>  <enum_smi>
Cc1sc2[nH+]c(SC(C)C)[nH+]c(N)c2c1C

>  <sha256>
f184dd6951dd47e0055fc30c5b0e95ad9abd5d41652c716f1f97c53591a4cb37

>  <std_smi>
Cc1sc2nc(SC(C)C)nc(N)c2c1C

>  <uuid>
74a169dd-52ba-4a55-be95-bca90e98f128

$$$$
74a169dd-52ba-4a55-be95-bca90e98f128
  rDOCK(R)          3D
libRbt.so/2013.1/901 2013/11/27
 20 21  0  0  0  0  0  0  0  0999 V2000
   -1.9469   33.6243    2.7152 C   0  0  0  0  0  0
   -1.7476   32.1590    2.9765 C   0  0  0  0  0  0
   -1.9637   31.5571    4.5585 S   0  0  0  0  0  0
   -1.5966   29.9912    4.0660 C   0  0  0  0  0  0
   -1.5996   28.9572    4.9297 N   0  3  0  0  0  0
   -1.3165   27.7558    4.4582 C   0  0  0  0  0  0
   -1.2636   26.3759    5.5355 S   0  0  0  0  0  0
   -2.6876   25.3505    4.9565 C   0  0  0  0  0  0
   -4.0203   26.0488    5.2065 C   0  0  0  0  0  0
   -2.6578   23.9520    5.5644 C   0  0  0  0  0  0
   -0.9978   27.6048    3.1757 N   0  3  0  0  0  0
   -0.9620   28.5595    2.2441 C   0  0  0  0  0  0
   -0.6221   28.2187    0.9628 N   0  0  0  0  0  0
   -1.2950   29.8526    2.7209 C   0  0  0  0  0  0
   -1.3922   31.1589    2.0750 C   0  0  0  0  0  0
   -1.1417   31.4175    0.6152 C   0  0  0  0  0  0
   -1.8068   29.1116    5.9171 H   0  0  0  0  0  0
   -0.7467   26.6622    2.8778 H   0  0  0  0  0  0
   -0.5620   28.9299    0.2362 H   0  0  0  0  0  0
   -0.3508   27.2974    0.6347 H   0  0  0  0  0  0
  1  2  1  0  0  0
  2  3  1  0  0  0
  3  4  1  0  0  0
  4  5  2  0  0  0
  5  6  1  0  0  0
  6  7  1  0  0  0
  7  8  1  0  0  0
  8  9  1  0  0  0
  8 10  1  0  0  0
  6 11  2  0  0  0
 11 12  1  0  0  0
 12 13  1  0  0  0
 12 14  2  0  0  0
 14 15  1  0  0  0
 15 16  1  0  0  0
 15  2  2  0  0  0
 14  4  1  0  0  0
  5 17  1  0  0  0
 11 18  1  0  0  0
 13 19  1  0  0  0
 13 20  1  0  0  0
M  END
>  <CHROM.0>
-59.88758699,68.76513735

>  <CHROM.1>
113.78907042,-66.08059520,-1.69813684,28.86926155,3.75730799,1.26639823,1.21862511
-0.10764044

>  <Name>
74a169dd-52ba-4a55-be95-bca90e98f128

>  <RI>
2.75592e+07

>  <Rbt.Current_Directory>
/data/work/jku/5V6S/work/40/8dba899c20c42488f2b1a17844994e

>  <Rbt.Executable>
rbdock ($Id: //depot/dev/client3/rdock/2013.1/src/exe/rbdock.cxx#4 $)

>  <Rbt.Library>
libRbt.so (2013.1, Build901 2013/11/27)

>  <Rbt.Parameter_File>
/rDock_2013.1_src/data/scripts/dock.prm

>  <Rbt.Receptor>
docking.prm

>  <SCORE>
-18.6063

>  <SCORE.INTER>
-17.2563

>  <SCORE.INTER.CONST>
1

>  <SCORE.INTER.POLAR>
-0.949991

>  <SCORE.INTER.REPUL>
0

>  <SCORE.INTER.ROT>
2

>  <SCORE.INTER.VDW>
-21.4264

>  <SCORE.INTER.norm>
-1.07852

>  <SCORE.INTRA>
0.163666

>  <SCORE.INTRA.DIHEDRAL>
-0.0662942

>  <SCORE.INTRA.DIHEDRAL.0>
2.24308

>  <SCORE.INTRA.POLAR>
0

>  <SCORE.INTRA.POLAR.0>
0

>  <SCORE.INTRA.REPUL>
0

>  <SCORE.INTRA.REPUL.0>
0

>  <SCORE.INTRA.VDW>
0.196813

>  <SCORE.INTRA.VDW.0>
-1.02269

>  <SCORE.INTRA.norm>
0.0102291

>  <SCORE.RESTR>
0

>  <SCORE.RESTR.CAVITY>
0

>  <SCORE.RESTR.norm>
0

>  <SCORE.SYSTEM>
-1.51357

>  <SCORE.SYSTEM.CONST>
0

>  <SCORE.SYSTEM.DIHEDRAL>
0.380152

>  <SCORE.SYSTEM.POLAR>
-0.50282

>  <SCORE.SYSTEM.VDW>
0.0059421

>  <SCORE.SYSTEM.norm>
-0.0945981

>  <SCORE.heavy>
16

>  <SCORE.norm>
-1.16289

>  <enum_code>
M

>  <enum_smi>
Cc1sc2[nH+]c(SC(C)C)[nH+]c(N)c2c1C

>  <sha256>
f184dd6951dd47e0055fc30c5b0e95ad9abd5d41652c716f1f97c53591a4cb37

>  <std_smi>
Cc1sc2nc(SC(C)C)nc(N)c2c1C

>  <uuid>
74a169dd-52ba-4a55-be95-bca90e98f128

$$$$
74a169dd-52ba-4a55-be95-bca90e98f128
  rDOCK(R)          3D
libRbt.so/2013.1/901 2013/11/27
 20 21  0  0  0  0  0  0  0  0999 V2000
   -0.2884   32.0034    0.3885 C   0  0  0  0  0  0
   -0.7530   31.2090    1.5753 C   0  0  0  0  0  0
   -0.8655   29.5109    1.4498 S   0  0  0  0  0  0
   -1.4012   29.3795    3.0388 C   0  0  0  0  0  0
   -1.6868   28.1858    3.5944 N   0  3  0  0  0  0
   -2.0857   28.1686    4.8539 C   0  0  0  0  0  0
   -2.5115   26.6539    5.6232 S   0  0  0  0  0  0
   -1.3312   25.4586    4.8535 C   0  0  0  0  0  0
   -1.8380   24.0238    4.9575 C   0  0  0  0  0  0
    0.0738   25.6062    5.4282 C   0  0  0  0  0  0
   -2.2359   29.3114    5.5177 N   0  3  0  0  0  0
   -1.9852   30.5396    5.0600 C   0  0  0  0  0  0
   -2.1864   31.6075    5.8920 N   0  0  0  0  0  0
   -1.5238   30.5798    3.7199 C   0  0  0  0  0  0
   -1.1286   31.6715    2.8339 C   0  0  0  0  0  0
   -1.1217   33.1267    3.2121 C   0  0  0  0  0  0
   -1.6023   27.3291    3.0460 H   0  0  0  0  0  0
   -2.5876   29.2396    6.4724 H   0  0  0  0  0  0
   -2.0275   32.5581    5.5624 H   0  0  0  0  0  0
   -2.5501   31.5754    6.8389 H   0  0  0  0  0  0
  1  2  1  0  0  0
  2  3  1  0  0  0
  3  4  1  0  0  0
  4  5  2  0  0  0
  5  6  1  0  0  0
  6  7  1  0  0  0
  7  8  1  0  0  0
  8  9  1  0  0  0
  8 10  1  0  0  0
  6 11  2  0  0  0
 11 12  1  0  0  0
 12 13  1  0  0  0
 12 14  2  0  0  0
 14 15  1  0  0  0
 15 16  1  0  0  0
 15  2  2  0  0  0
 14  4  1  0  0  0
  5 17  1  0  0  0
 11 18  1  0  0  0
 13 19  1  0  0  0
 13 20  1  0  0  0
M  END
>  <CHROM.0>
-59.88758699,68.99529759

>  <CHROM.1>
34.68779907,-158.35702449,-1.46578156,29.00505820,3.85948162,-1.26748453
-1.20897075,2.95373740

>  <Name>
74a169dd-52ba-4a55-be95-bca90e98f128

>  <RI>
2.75592e+07

>  <Rbt.Current_Directory>
/data/work/jku/5V6S/work/40/8dba899c20c42488f2b1a17844994e

>  <Rbt.Executable>
rbdock ($Id: //depot/dev/client3/rdock/2013.1/src/exe/rbdock.cxx#4 $)

>  <Rbt.Library>
libRbt.so (2013.1, Build901 2013/11/27)

>  <Rbt.Parameter_File>
/rDock_2013.1_src/data/scripts/dock.prm

>  <Rbt.Receptor>
docking.prm

>  <SCORE>
-18.6179

>  <SCORE.INTER>
-17.5108

>  <SCORE.INTER.CONST>
1

>  <SCORE.INTER.POLAR>
-0.746909

>  <SCORE.INTER.REPUL>
0

>  <SCORE.INTER.ROT>
2

>  <SCORE.INTER.VDW>
-22.3714

>  <SCORE.INTER.norm>
-1.09443

>  <SCORE.INTRA>
0.406553

>  <SCORE.INTRA.DIHEDRAL>
0.271645

>  <SCORE.INTRA.DIHEDRAL.0>
2.24308

>  <SCORE.INTRA.POLAR>
0

>  <SCORE.INTRA.POLAR.0>
0

>  <SCORE.INTRA.REPUL>
0

>  <SCORE.INTRA.REPUL.0>
0

>  <SCORE.INTRA.VDW>
0.27073

>  <SCORE.INTRA.VDW.0>
-1.02269

>  <SCORE.INTRA.norm>
0.0254095

>  <SCORE.RESTR>
0

>  <SCORE.RESTR.CAVITY>
0

>  <SCORE.RESTR.norm>
0

>  <SCORE.SYSTEM>
-1.51363

>  <SCORE.SYSTEM.CONST>
0

>  <SCORE.SYSTEM.DIHEDRAL>
0.399605

>  <SCORE.SYSTEM.POLAR>
-0.502983

>  <SCORE.SYSTEM.VDW>
-0.00329458

>  <SCORE.SYSTEM.norm>
-0.0946021

>  <SCORE.heavy>
16

>  <SCORE.norm>
-1.16362

>  <enum_code>
M

>  <enum_smi>
Cc1sc2[nH+]c(SC(C)C)[nH+]c(N)c2c1C

>  <sha256>
f184dd6951dd47e0055fc30c5b0e95ad9abd5d41652c716f1f97c53591a4cb37

>  <std_smi>
Cc1sc2nc(SC(C)C)nc(N)c2c1C

>  <uuid>
74a169dd-52ba-4a55-be95-bca90e98f128

$$$$
74a169dd-52ba-4a55-be95-bca90e98f128
  rDOCK(R)          3D
libRbt.so/2013.1/901 2013/11/27
 20 21  0  0  0  0  0  0  0  0999 V2000
   -1.9742   33.5924    2.6847 C   0  0  0  0  0  0
   -1.7600   32.1303    2.9522 C   0  0  0  0  0  0
   -1.9818   31.5307    4.5343 S   0  0  0  0  0  0
   -1.5927   29.9677    4.0497 C   0  0  0  0  0  0
   -1.5906   28.9364    4.9166 N   0  3  0  0  0  0
   -1.2898   27.7369    4.4511 C   0  0  0  0  0  0
   -1.2295   26.3610    5.5331 S   0  0  0  0  0  0
   -2.6659   25.3404    4.9769 C   0  0  0  0  0  0
   -3.9927   26.0370    5.2610 C   0  0  0  0  0  0
   -2.6236   23.9373    5.5732 C   0  0  0  0  0  0
   -0.9591   27.5858    3.1717 N   0  3  0  0  0  0
   -0.9269   28.5380    2.2374 C   0  0  0  0  0  0
   -0.5728   28.1972    0.9599 N   0  0  0  0  0  0
   -1.2786   29.8285    2.7074 C   0  0  0  0  0  0
   -1.3859   31.1316    2.0567 C   0  0  0  0  0  0
   -1.1266   31.3887    0.5981 C   0  0  0  0  0  0
   -1.8074   29.0914    5.9018 H   0  0  0  0  0  0
   -0.6947   26.6452    2.8787 H   0  0  0  0  0  0
   -0.5152   28.9068    0.2316 H   0  0  0  0  0  0
   -0.2882   27.2782    0.6369 H   0  0  0  0  0  0
  1  2  1  0  0  0
  2  3  1  0  0  0
  3  4  1  0  0  0
  4  5  2  0  0  0
  5  6  1  0  0  0
  6  7  1  0  0  0
  7  8  1  0  0  0
  8  9  1  0  0  0
  8 10  1  0  0  0
  6 11  2  0  0  0
 11 12  1  0  0  0
 12 13  1  0  0  0
 12 14  2  0  0  0
 14 15  1  0  0  0
 15 16  1  0  0  0
 15  2  2  0  0  0
 14  4  1  0  0  0
  5 17  1  0  0  0
 11 18  1  0  0  0
 13 19  1  0  0  0
 13 20  1  0  0  0
M  END
>  <CHROM.0>
-59.88758699,68.49152472

>  <CHROM.1>
112.25055940,-66.94927757,-1.68257644,28.84799413,3.75071693,1.29465609,1.20177978
-0.14291491

>  <Name>
74a169dd-52ba-4a55-be95-bca90e98f128

>  <RI>
2.75592e+07

>  <Rbt.Current_Directory>
/data/work/jku/5V6S/work/40/8dba899c20c42488f2b1a17844994e

>  <Rbt.Executable>
rbdock ($Id: //depot/dev/client3/rdock/2013.1/src/exe/rbdock.cxx#4 $)

>  <Rbt.Library>
libRbt.so (2013.1, Build901 2013/11/27)

>  <Rbt.Parameter_File>
/rDock_2013.1_src/data/scripts/dock.prm

>  <Rbt.Receptor>
docking.prm

>  <SCORE>
-18.6252

>  <SCORE.INTER>
-17.287

>  <SCORE.INTER.CONST>
1

>  <SCORE.INTER.POLAR>
-0.931987

>  <SCORE.INTER.REPUL>
0

>  <SCORE.INTER.ROT>
2

>  <SCORE.INTER.VDW>
-21.5183

>  <SCORE.INTER.norm>
-1.08044

>  <SCORE.INTRA>
0.174684

>  <SCORE.INTRA.DIHEDRAL>
-0.0345592

>  <SCORE.INTRA.DIHEDRAL.0>
2.24308

>  <SCORE.INTRA.POLAR>
0

>  <SCORE.INTRA.POLAR.0>
0

>  <SCORE.INTRA.REPUL>
0

>  <SCORE.INTRA.REPUL.0>
0

>  <SCORE.INTRA.VDW>
0.191964

>  <SCORE.INTRA.VDW.0>
-1.02269

>  <SCORE.INTRA.norm>
0.0109178

>  <SCORE.RESTR>
0

>  <SCORE.RESTR.CAVITY>
0

>  <SCORE.RESTR.norm>
0

>  <SCORE.SYSTEM>
-1.51284

>  <SCORE.SYSTEM.CONST>
0

>  <SCORE.SYSTEM.DIHEDRAL>
0.357637

>  <SCORE.SYSTEM.POLAR>
-0.50257

>  <SCORE.SYSTEM.VDW>
0.0170815

>  <SCORE.SYSTEM.norm>
-0.0945524

>  <SCORE.heavy>
16

>  <SCORE.norm>
-1.16408

>  <enum_code>
M

>  <enum_smi>
Cc1sc2[nH+]c(SC(C)C)[nH+]c(N)c2c1C

>  <sha256>
f184dd6951dd47e0055fc30c5b0e95ad9abd5d41652c716f1f97c53591a4cb37

>  <std_smi>
Cc1sc2nc(SC(C)C)nc(N)c2c1C

>  <uuid>
74a169dd-52ba-4a55-be95-bca90e98f128

$$$$
4f9df167-f6fb-4e4a-ae9e-ce757f5d1cfb
  rDOCK(R)          3D
libRbt.so/2013.1/901 2013/11/27
 19 20  0  0  0  0  0  0  0  0999 V2000
   -1.4726   33.6107    3.0138 C   0  0  0  0  0  0
   -1.4714   32.1123    3.0481 C   0  0  0  0  0  0
   -2.1467   31.3044    4.3944 S   0  0  0  0  0  0
   -1.7876   29.7943    3.7354 C   0  0  0  0  0  0
   -2.0853   28.6473    4.3740 N   0  3  0  0  0  0
   -1.7664   27.5141    3.7731 C   0  0  0  0  0  0
   -2.1678   26.0384    4.6628 S   0  0  0  0  0  0
   -0.5688   25.1280    4.6415 C   0  0  0  0  0  0
   -0.8130   23.6214    4.6620 C   0  0  0  0  0  0
    0.2361   25.5525    5.8687 C   0  0  0  0  0  0
   -1.1695   27.4497    2.5714 N   0  0  0  0  0  0
   -0.8604   28.5893    1.9127 C   0  0  0  0  0  0
   -0.2467   28.4280    0.6929 N   0  0  0  0  0  0
   -1.1687   29.8406    2.4986 C   0  0  0  0  0  0
   -0.9658   31.2262    2.1012 C   0  0  0  0  0  0
   -0.2915   31.6546    0.8313 C   0  0  0  0  0  0
   -2.5321   28.6370    5.2827 H   0  0  0  0  0  0
    0.0672   27.4849    0.4898 H   0  0  0  0  0  0
   -0.5408   28.9772   -0.1018 H   0  0  0  0  0  0
  1  2  1  0  0  0
  2  3  1  0  0  0
  3  4  1  0  0  0
  4  5  2  0  0  0
  5  6  1  0  0  0
  6  7  1  0  0  0
  7  8  1  0  0  0
  8  9  1  0  0  0
  8 10  1  0  0  0
  6 11  2  0  0  0
 11 12  1  0  0  0
 12 13  1  0  0  0
 12 14  2  0  0  0
 14 15  1  0  0  0
 15 16  1  0  0  0
 15  2  2  0  0  0
 14  4  1  0  0  0
  5 17  1  0  0  0
 13 18  1  0  0  0
 13 19  1  0  0  0
M  END
>  <CHROM.0>
-59.88758699,69.61491294

>  <CHROM.1>
-128.46506042,-149.94830828,-10.93881491,-1.29459396,28.72266314,3.47759824
1.66937459,1.15607449,-0.38649667

>  <Name>
4f9df167-f6fb-4e4a-ae9e-ce757f5d1cfb

>  <RI>
1.37884e+07

>  <Rbt.Current_Directory>
/data/work/jku/5V6S/work/40/8dba899c20c42488f2b1a17844994e

>  <Rbt.Executable>
rbdock ($Id: //depot/dev/client3/rdock/2013.1/src/exe/rbdock.cxx#4 $)

>  <Rbt.Library>
libRbt.so (2013.1, Build901 2013/11/27)

>  <Rbt.Parameter_File>
/rDock_2013.1_src/data/scripts/dock.prm

>  <Rbt.Receptor>
docking.prm

>  <SCORE>
-17.5206

>  <SCORE.INTER>
-15.9475

>  <SCORE.INTER.CONST>
1

>  <SCORE.INTER.POLAR>
-0.885081

>  <SCORE.INTER.REPUL>
0

>  <SCORE.INTER.ROT>
3

>  <SCORE.INTER.VDW>
-21.3382

>  <SCORE.INTER.norm>
-0.996718

>  <SCORE.INTRA>
-0.0617577

>  <SCORE.INTRA.DIHEDRAL>
0.711518

>  <SCORE.INTRA.DIHEDRAL.0>
2.98087

>  <SCORE.INTRA.POLAR>
0

>  <SCORE.INTRA.POLAR.0>
0

>  <SCORE.INTRA.REPUL>
0

>  <SCORE.INTRA.REPUL.0>
0

>  <SCORE.INTRA.VDW>
-0.417517

>  <SCORE.INTRA.VDW.0>
-0.55655

>  <SCORE.INTRA.norm>
-0.00385986

>  <SCORE.RESTR>
0

>  <SCORE.RESTR.CAVITY>
0

>  <SCORE.RESTR.norm>
0

>  <SCORE.SYSTEM>
-1.51133

>  <SCORE.SYSTEM.CONST>
0

>  <SCORE.SYSTEM.DIHEDRAL>
0.454282

>  <SCORE.SYSTEM.POLAR>
-0.50321

>  <SCORE.SYSTEM.VDW>
-0.0275625

>  <SCORE.SYSTEM.norm>
-0.0944584

>  <SCORE.heavy>
16

>  <SCORE.norm>
-1.09504

>  <enum_code>
M

>  <enum_smi>
Cc1sc2[nH+]c(SC(C)C)nc(N)c2c1C

>  <sha256>
f184dd6951dd47e0055fc30c5b0e95ad9abd5d41652c716f1f97c53591a4cb37

>  <std_smi>
Cc1sc2nc(SC(C)C)nc(N)c2c1C

>  <uuid>
4f9df167-f6fb-4e4a-ae9e-ce757f5d1cfb

$$$$
4f9df167-f6fb-4e4a-ae9e-ce757f5d1cfb
  rDOCK(R)          3D
libRbt.so/2013.1/901 2013/11/27
 19 20  0  0  0  0  0  0  0  0999 V2000
   -1.5321   33.6237    2.9025 C   0  0  0  0  0  0
   -1.4807   32.1299    3.0134 C   0  0  0  0  0  0
   -2.0437   31.3757    4.4401 S   0  0  0  0  0  0
   -1.6787   29.8437    3.8376 C   0  0  0  0  0  0
   -1.8987   28.7242    4.5520 N   0  3  0  0  0  0
   -1.5821   27.5703    3.9907 C   0  0  0  0  0  0
   -1.8792   26.1331    4.9790 S   0  0  0  0  0  0
   -0.1734   25.5111    5.2781 C   0  0  0  0  0  0
    0.3645   24.8109    4.0329 C   0  0  0  0  0  0
   -0.2218   24.5386    6.4553 C   0  0  0  0  0  0
   -1.0603   27.4592    2.7578 N   0  0  0  0  0  0
   -0.8300   28.5705    2.0231 C   0  0  0  0  0  0
   -0.2894   28.3622    0.7761 N   0  0  0  0  0  0
   -1.1407   29.8418    2.5627 C   0  0  0  0  0  0
   -1.0076   31.2096    2.0825 C   0  0  0  0  0  0
   -0.4287   31.5889    0.7515 C   0  0  0  0  0  0
   -2.2868   28.7494    5.4870 H   0  0  0  0  0  0
   -0.1016   27.3925    0.5443 H   0  0  0  0  0  0
   -0.5454   28.9601    0.0036 H   0  0  0  0  0  0
  1  2  1  0  0  0
  2  3  1  0  0  0
  3  4  1  0  0  0
  4  5  2  0  0  0
  5  6  1  0  0  0
  6  7  1  0  0  0
  7  8  1  0  0  0
  8  9  1  0  0  0
  8 10  1  0  0  0
  6 11  2  0  0  0
 11 12  1  0  0  0
 12 13  1  0  0  0
 12 14  2  0  0  0
 14 15  1  0  0  0
 15 16  1  0  0  0
 15  2  2  0  0  0
 14  4  1  0  0  0
  5 17  1  0  0  0
 13 18  1  0  0  0
 13 19  1  0  0  0
M  END
>  <CHROM.0>
-59.88758699,68.82055034

>  <CHROM.1>
-113.92029085,-76.40252184,-1.19288885,-1.16569022,28.77579582,3.58886521
1.80482603,1.15798705,-0.56887805

>  <Name>
4f9df167-f6fb-4e4a-ae9e-ce757f5d1cfb

>  <RI>
1.37884e+07

>  <Rbt.Current_Directory>
/data/work/jku/5V6S/work/40/8dba899c20c42488f2b1a17844994e

>  <Rbt.Executable>
rbdock ($Id: //depot/dev/client3/rdock/2013.1/src/exe/rbdock.cxx#4 $)

>  <Rbt.Library>
libRbt.so (2013.1, Build901 2013/11/27)

>  <Rbt.Parameter_File>
/rDock_2013.1_src/data/scripts/dock.prm

>  <Rbt.Receptor>
docking.prm

>  <SCORE>
-18.8438

>  <SCORE.INTER>
-16.9416

>  <SCORE.INTER.CONST>
1

>  <SCORE.INTER.POLAR>
-0.864002

>  <SCORE.INTER.REPUL>
0

>  <SCORE.INTER.ROT>
3

>  <SCORE.INTER.VDW>
-22.404

>  <SCORE.INTER.norm>
-1.05885

>  <SCORE.INTRA>
-0.388566

>  <SCORE.INTRA.DIHEDRAL>
-0.0884899

>  <SCORE.INTRA.DIHEDRAL.0>
2.98087

>  <SCORE.INTRA.POLAR>
0

>  <SCORE.INTRA.POLAR.0>
0

>  <SCORE.INTRA.REPUL>
0

>  <SCORE.INTRA.REPUL.0>
0

>  <SCORE.INTRA.VDW>
-0.344321

>  <SCORE.INTRA.VDW.0>
-0.55655

>  <SCORE.INTRA.norm>
-0.0242854

>  <SCORE.RESTR>
0

>  <SCORE.RESTR.CAVITY>
0

>  <SCORE.RESTR.norm>
0

>  <SCORE.SYSTEM>
-1.51363

>  <SCORE.SYSTEM.CONST>
0

>  <SCORE.SYSTEM.DIHEDRAL>
0.384793

>  <SCORE.SYSTEM.POLAR>
-0.502863

>  <SCORE.SYSTEM.VDW>
0.00370718

>  <SCORE.SYSTEM.norm>
-0.0946019

>  <SCORE.heavy>
16

>  <SCORE.norm>
-1.17774

>  <enum_code>
M

>  <enum_smi>
Cc1sc2[nH+]c(SC(C)C)nc(N)c2c1C

>  <sha256>
f184dd6951dd47e0055fc30c5b0e95ad9abd5d41652c716f1f97c53591a4cb37

>  <std_smi>
Cc1sc2nc(SC(C)C)nc(N)c2c1C

>  <uuid>
4f9df167-f6fb-4e4a-ae9e-ce757f5d1cfb

$$$$
4f9df167-f6fb-4e4a-ae9e-ce757f5d1cfb
  rDOCK(R)          3D
libRbt.so/2013.1/901 2013/11/27
 19 20  0  0  0  0  0  0  0  0999 V2000
   -0.4366   32.0940    0.3943 C   0  0  0  0  0  0
   -0.8205   31.2823    1.5942 C   0  0  0  0  0  0
   -0.8836   29.5789    1.4684 S   0  0  0  0  0  0
   -1.3501   29.4240    3.0815 C   0  0  0  0  0  0
   -1.5894   28.2246    3.6437 N   0  3  0  0  0  0
   -1.9468   28.2077    4.9161 C   0  0  0  0  0  0
   -2.2622   26.6066    5.5998 S   0  0  0  0  0  0
   -3.6952   26.0344    4.5974 C   0  0  0  0  0  0
   -4.9743   26.7354    5.0475 C   0  0  0  0  0  0
   -3.8268   24.5229    4.7759 C   0  0  0  0  0  0
   -2.0795   29.3130    5.6679 N   0  0  0  0  0  0
   -1.8451   30.5281    5.1235 C   0  0  0  0  0  0
   -2.0107   31.6030    5.9648 N   0  0  0  0  0  0
   -1.4629   30.6226    3.7636 C   0  0  0  0  0  0
   -1.1636   31.7295    2.8669 C   0  0  0  0  0  0
   -1.2204   33.1770    3.2574 C   0  0  0  0  0  0
   -1.5078   27.3598    3.1232 H   0  0  0  0  0  0
   -2.2912   32.4661    5.5112 H   0  0  0  0  0  0
   -2.3525   31.4660    6.9050 H   0  0  0  0  0  0
  1  2  1  0  0  0
  2  3  1  0  0  0
  3  4  1  0  0  0
  4  5  2  0  0  0
  5  6  1  0  0  0
  6  7  1  0  0  0
  7  8  1  0  0  0
  8  9  1  0  0  0
  8 10  1  0  0  0
  6 11  2  0  0  0
 11 12  1  0  0  0
 12 13  1  0  0  0
 12 14  2  0  0  0
 14 15  1  0  0  0
 15 16  1  0  0  0
 15  2  2  0  0  0
 14  4  1  0  0  0
  5 17  1  0  0  0
 13 18  1  0  0  0
 13 19  1  0  0  0
M  END
>  <CHROM.0>
-59.88758699,179.91602590

>  <CHROM.1>
-62.99571851,-75.75509300,-150.84414752,-1.94628635,29.15371327,3.83302320
-0.32961167,-1.17841602,-2.41972504

>  <Name>
4f9df167-f6fb-4e4a-ae9e-ce757f5d1cfb

>  <RI>
1.37884e+07

>  <Rbt.Current_Directory>
/data/work/jku/5V6S/work/40/8dba899c20c42488f2b1a17844994e

>  <Rbt.Executable>
rbdock ($Id: //depot/dev/client3/rdock/2013.1/src/exe/rbdock.cxx#4 $)

>  <Rbt.Library>
libRbt.so (2013.1, Build901 2013/11/27)

>  <Rbt.Parameter_File>
/rDock_2013.1_src/data/scripts/dock.prm

>  <Rbt.Receptor>
docking.prm

>  <SCORE>
-15.5785

>  <SCORE.INTER>
-15.0898

>  <SCORE.INTER.CONST>
1

>  <SCORE.INTER.POLAR>
-0.638384

>  <SCORE.INTER.REPUL>
0

>  <SCORE.INTER.ROT>
3

>  <SCORE.INTER.VDW>
-21.3193

>  <SCORE.INTER.norm>
-0.943113

>  <SCORE.INTRA>
-0.216871

>  <SCORE.INTRA.DIHEDRAL>
-0.120696

>  <SCORE.INTRA.DIHEDRAL.0>
2.98087

>  <SCORE.INTRA.POLAR>
0

>  <SCORE.INTRA.POLAR.0>
0

>  <SCORE.INTRA.REPUL>
0

>  <SCORE.INTRA.REPUL.0>
0

>  <SCORE.INTRA.VDW>
-0.156523

>  <SCORE.INTRA.VDW.0>
-0.55655

>  <SCORE.INTRA.norm>
-0.0135544

>  <SCORE.RESTR>
0

>  <SCORE.RESTR.CAVITY>
0

>  <SCORE.RESTR.norm>
0

>  <SCORE.SYSTEM>
-0.271791

>  <SCORE.SYSTEM.CONST>
0

>  <SCORE.SYSTEM.DIHEDRAL>
0.00766609

>  <SCORE.SYSTEM.VDW>
-0.275624

>  <SCORE.SYSTEM.norm>
-0.0169869

>  <SCORE.heavy>
16

>  <SCORE.norm>
-0.973654

>  <enum_code>
M

>  <enum_smi>
Cc1sc2[nH+]c(SC(C)C)nc(N)c2c1C

>  <sha256>
f184dd6951dd47e0055fc30c5b0e95ad9abd5d41652c716f1f97c53591a4cb37

>  <std_smi>
Cc1sc2nc(SC(C)C)nc(N)c2c1C

>  <uuid>
4f9df167-f6fb-4e4a-ae9e-ce757f5d1cfb

$$$$
4f9df167-f6fb-4e4a-ae9e-ce757f5d1cfb
  rDOCK(R)          3D
libRbt.so/2013.1/901 2013/11/27
 19 20  0  0  0  0  0  0  0  0999 V2000
    0.0512   32.3079    0.2425 C   0  0  0  0  0  0
   -0.5384   31.4663    1.3336 C   0  0  0  0  0  0
   -0.8449   29.8104    1.0417 S   0  0  0  0  0  0
   -1.4489   29.5927    2.6009 C   0  0  0  0  0  0
   -1.9058   28.4015    3.0301 N   0  3  0  0  0  0
   -2.3561   28.3318    4.2708 C   0  0  0  0  0  0
   -2.9570   26.7467    4.7776 S   0  0  0  0  0  0
   -4.7483   26.8660    4.3741 C   0  0  0  0  0  0
   -5.4404   27.8546    5.3088 C   0  0  0  0  0  0
   -5.3626   25.4751    4.5228 C   0  0  0  0  0  0
   -2.3787   29.3762    5.1155 N   0  0  0  0  0  0
   -1.9257   30.5821    4.7051 C   0  0  0  0  0  0
   -1.9919   31.5940    5.6338 N   0  0  0  0  0  0
   -1.4328   30.7318    3.3866 C   0  0  0  0  0  0
   -0.9055   31.8512    2.6198 C   0  0  0  0  0  0
   -0.7751   33.2513    3.1429 C   0  0  0  0  0  0
   -1.9152   27.5820    2.4352 H   0  0  0  0  0  0
   -1.3582   31.4992    6.4203 H   0  0  0  0  0  0
   -2.1987   32.5388    5.3436 H   0  0  0  0  0  0
  1  2  1  0  0  0
  2  3  1  0  0  0
  3  4  1  0  0  0
  4  5  2  0  0  0
  5  6  1  0  0  0
  6  7  1  0  0  0
  7  8  1  0  0  0
  8  9  1  0  0  0
  8 10  1  0  0  0
  6 11  2  0  0  0
 11 12  1  0  0  0
 12 13  1  0  0  0
 12 14  2  0  0  0
 14 15  1  0  0  0
 15 16  1  0  0  0
 15  2  2  0  0  0
 14  4  1  0  0  0
  5 17  1  0  0  0
 13 18  1  0  0  0
 13 19  1  0  0  0
M  END
>  <CHROM.0>
-59.88758699,68.36518879

>  <CHROM.1>
-92.07370431,-69.28500094,68.83443454,-2.17708595,29.43254364,3.44652370
-0.21834075,-0.98769984,-2.37501508

>  <Name>
4f9df167-f6fb-4e4a-ae9e-ce757f5d1cfb

>  <RI>
1.37884e+07

>  <Rbt.Current_Directory>
/data/work/jku/5V6S/work/40/8dba899c20c42488f2b1a17844994e

>  <Rbt.Executable>
rbdock ($Id: //depot/dev/client3/rdock/2013.1/src/exe/rbdock.cxx#4 $)

>  <Rbt.Library>
libRbt.so (2013.1, Build901 2013/11/27)

>  <Rbt.Parameter_File>
/rDock_2013.1_src/data/scripts/dock.prm

>  <Rbt.Receptor>
docking.prm

>  <SCORE>
-17.2712

>  <SCORE.INTER>
-15.1783

>  <SCORE.INTER.CONST>
1

>  <SCORE.INTER.POLAR>
-0.849084

>  <SCORE.INTER.REPUL>
0

>  <SCORE.INTER.ROT>
3

>  <SCORE.INTER.VDW>
-20.6914

>  <SCORE.INTER.norm>
-0.948646

>  <SCORE.INTRA>
-0.580602

>  <SCORE.INTRA.DIHEDRAL>
-0.384101

>  <SCORE.INTRA.DIHEDRAL.0>
2.98087

>  <SCORE.INTRA.POLAR>
0

>  <SCORE.INTRA.POLAR.0>
0

>  <SCORE.INTRA.REPUL>
0

>  <SCORE.INTRA.REPUL.0>
0

>  <SCORE.INTRA.VDW>
-0.388552

>  <SCORE.INTRA.VDW.0>
-0.55655

>  <SCORE.INTRA.norm>
-0.0362876

>  <SCORE.RESTR>
0

>  <SCORE.RESTR.CAVITY>
0

>  <SCORE.RESTR.norm>
0

>  <SCORE.SYSTEM>
-1.51226

>  <SCORE.SYSTEM.CONST>
0

>  <SCORE.SYSTEM.DIHEDRAL>
0.347465

>  <SCORE.SYSTEM.POLAR>
-0.502434

>  <SCORE.SYSTEM.VDW>
0.0222836

>  <SCORE.SYSTEM.norm>
-0.0945162

>  <SCORE.heavy>
16

>  <SCORE.norm>
-1.07945

>  <enum_code>
M

>  <enum_smi>
Cc1sc2[nH+]c(SC(C)C)nc(N)c2c1C

>  <sha256>
f184dd6951dd47e0055fc30c5b0e95ad9abd5d41652c716f1f97c53591a4cb37

>  <std_smi>
Cc1sc2nc(SC(C)C)nc(N)c2c1C

>  <uuid>
4f9df167-f6fb-4e4a-ae9e-ce757f5d1cfb

$$$$
4f9df167-f6fb-4e4a-ae9e-ce757f5d1cfb
  rDOCK(R)          3D
libRbt.so/2013.1/901 2013/11/27
 19 20  0  0  0  0  0  0  0  0999 V2000
   -0.1008   32.3366    0.2718 C   0  0  0  0  0  0
   -0.5892   31.4655    1.3894 C   0  0  0  0  0  0
   -0.7015   29.7772    1.1481 S   0  0  0  0  0  0
   -1.2768   29.5380    2.7150 C   0  0  0  0  0  0
   -1.5926   28.3152    3.1810 N   0  3  0  0  0  0
   -2.0322   28.2311    4.4246 C   0  0  0  0  0  0
   -2.4453   26.6030    4.9804 S   0  0  0  0  0  0
   -0.8038   25.9373    5.4788 C   0  0  0  0  0  0
   -0.0081   25.5061    4.2496 C   0  0  0  0  0  0
   -1.0359   24.7458    6.4063 C   0  0  0  0  0  0
   -2.1761   29.2907    5.2377 N   0  0  0  0  0  0
   -1.8659   30.5282    4.7902 C   0  0  0  0  0  0
   -2.0494   31.5530    5.6883 N   0  0  0  0  0  0
   -1.3931   30.6943    3.4661 C   0  0  0  0  0  0
   -0.9990   31.8437    2.6647 C   0  0  0  0  0  0
   -1.0321   33.2646    3.1452 C   0  0  0  0  0  0
   -1.5066   27.4827    2.6109 H   0  0  0  0  0  0
   -1.4828   31.4967    6.5280 H   0  0  0  0  0  0
   -2.2652   32.4838    5.3618 H   0  0  0  0  0  0
  1  2  1  0  0  0
  2  3  1  0  0  0
  3  4  1  0  0  0
  4  5  2  0  0  0
  5  6  1  0  0  0
  6  7  1  0  0  0
  7  8  1  0  0  0
  8  9  1  0  0  0
  8 10  1  0  0  0
  6 11  2  0  0  0
 11 12  1  0  0  0
 12 13  1  0  0  0
 12 14  2  0  0  0
 14 15  1  0  0  0
 15 16  1  0  0  0
 15  2  2  0  0  0
 14  4  1  0  0  0
  5 17  1  0  0  0
 13 18  1  0  0  0
 13 19  1  0  0  0
M  END
>  <CHROM.0>
-59.88758699,68.92155032

>  <CHROM.1>
82.87287954,-78.16659464,62.08572396,-1.29263781,29.15890855,3.63702076,-1.32460683
-1.19513032,2.84581173

>  <Name>
4f9df167-f6fb-4e4a-ae9e-ce757f5d1cfb

>  <RI>
1.37884e+07

>  <Rbt.Current_Directory>
/data/work/jku/5V6S/work/40/8dba899c20c42488f2b1a17844994e

>  <Rbt.Executable>
rbdock ($Id: //depot/dev/client3/rdock/2013.1/src/exe/rbdock.cxx#4 $)

>  <Rbt.Library>
libRbt.so (2013.1, Build901 2013/11/27)

>  <Rbt.Parameter_File>
/rDock_2013.1_src/data/scripts/dock.prm

>  <Rbt.Receptor>
docking.prm

>  <SCORE>
-18.4356

>  <SCORE.INTER>
-16.5614

>  <SCORE.INTER.CONST>
1

>  <SCORE.INTER.POLAR>
-0.792899

>  <SCORE.INTER.REPUL>
0

>  <SCORE.INTER.ROT>
3

>  <SCORE.INTER.VDW>
-22.2655

>  <SCORE.INTER.norm>
-1.03509

>  <SCORE.INTRA>
-0.360556

>  <SCORE.INTRA.DIHEDRAL>
0.0188875

>  <SCORE.INTRA.DIHEDRAL.0>
2.98087

>  <SCORE.INTRA.POLAR>
0

>  <SCORE.INTRA.POLAR.0>
0

>  <SCORE.INTRA.REPUL>
0

>  <SCORE.INTRA.REPUL.0>
0

>  <SCORE.INTRA.VDW>
-0.37

>  <SCORE.INTRA.VDW.0>
-0.55655

>  <SCORE.INTRA.norm>
-0.0225347

>  <SCORE.RESTR>
0

>  <SCORE.RESTR.CAVITY>
0

>  <SCORE.RESTR.norm>
0

>  <SCORE.SYSTEM>
-1.51367

>  <SCORE.SYSTEM.CONST>
0

>  <SCORE.SYSTEM.DIHEDRAL>
0.393322

>  <SCORE.SYSTEM.POLAR>
-0.502935

>  <SCORE.SYSTEM.VDW>
-0.00034821

>  <SCORE.SYSTEM.norm>
-0.0946042

>  <SCORE.heavy>
16

>  <SCORE.norm>
-1.15223

>  <enum_code>
M

>  <enum_smi>
Cc1sc2[nH+]c(SC(C)C)nc(N)c2c1C

>  <sha256>
f184dd6951dd47e0055fc30c5b0e95ad9abd5d41652c716f1f97c53591a4cb37

>  <std_smi>
Cc1sc2nc(SC(C)C)nc(N)c2c1C

>  <uuid>
4f9df167-f6fb-4e4a-ae9e-ce757f5d1cfb

$$$$
782bf74c-db09-40b7-a061-695a3266123c
  rDOCK(R)          3D
libRbt.so/2013.1/901 2013/11/27
 19 20  0  0  0  0  0  0  0  0999 V2000
   -0.1913   32.0038    0.4100 C   0  0  0  0  0  0
   -0.7337   31.2414    1.5801 C   0  0  0  0  0  0
   -0.8932   29.5480    1.4644 S   0  0  0  0  0  0
   -1.5136   29.4306    3.0349 C   0  0  0  0  0  0
   -1.8529   28.2290    3.5254 N   0  0  0  0  0  0
   -2.3343   28.3023    4.7598 C   0  0  0  0  0  0
   -2.8399   26.8483    5.6326 S   0  0  0  0  0  0
   -4.6314   26.6554    5.2317 C   0  0  0  0  0  0
   -5.4665   27.8716    5.6201 C   0  0  0  0  0  0
   -4.8731   26.2020    3.7955 C   0  0  0  0  0  0
   -2.4487   29.4295    5.4508 N   0  3  0  0  0  0
   -2.1161   30.6384    5.0127 C   0  0  0  0  0  0
   -2.2905   31.7202    5.8443 N   0  0  0  0  0  0
   -1.6140   30.6528    3.6899 C   0  0  0  0  0  0
   -1.1530   31.7272    2.8132 C   0  0  0  0  0  0
   -1.1282   33.1812    3.1794 C   0  0  0  0  0  0
   -2.8252   29.3301    6.3849 H   0  0  0  0  0  0
   -2.5537   31.6579    6.8195 H   0  0  0  0  0  0
   -1.9687   32.6360    5.5491 H   0  0  0  0  0  0
  1  2  1  0  0  0
  2  3  1  0  0  0
  3  4  1  0  0  0
  4  5  2  0  0  0
  5  6  1  0  0  0
  6  7  1  0  0  0
  7  8  1  0  0  0
  8  9  1  0  0  0
  8 10  1  0  0  0
  6 11  2  0  0  0
 11 12  1  0  0  0
 12 13  1  0  0  0
 12 14  2  0  0  0
 14 15  1  0  0  0
 15 16  1  0  0  0
 15  2  2  0  0  0
 14  4  1  0  0  0
 11 17  1  0  0  0
 13 18  1  0  0  0
 13 19  1  0  0  0
M  END
>  <CHROM.0>
-59.88758699,-62.01579698

>  <CHROM.1>
-90.82198597,-57.80895521,-2.23553317,29.40509494,3.80747726,-0.22700957
-1.03033416,-2.46126304

>  <Name>
782bf74c-db09-40b7-a061-695a3266123c

>  <RI>
2.1833e+07

>  <Rbt.Current_Directory>
/data/work/jku/5V6S/work/40/8dba899c20c42488f2b1a17844994e

>  <Rbt.Executable>
rbdock ($Id: //depot/dev/client3/rdock/2013.1/src/exe/rbdock.cxx#4 $)

>  <Rbt.Library>
libRbt.so (2013.1, Build901 2013/11/27)

>  <Rbt.Parameter_File>
/rDock_2013.1_src/data/scripts/dock.prm

>  <Rbt.Receptor>
docking.prm

>  <SCORE>
-15.1333

>  <SCORE.INTER>
-15.8787

>  <SCORE.INTER.CONST>
1

>  <SCORE.INTER.POLAR>
-0.626513

>  <SCORE.INTER.REPUL>
0

>  <SCORE.INTER.ROT>
2

>  <SCORE.INTER.VDW>
-21.1485

>  <SCORE.INTER.norm>
-0.992416

>  <SCORE.INTRA>
-0.27644

>  <SCORE.INTRA.DIHEDRAL>
0.152408

>  <SCORE.INTRA.DIHEDRAL.0>
2.04107

>  <SCORE.INTRA.POLAR>
0

>  <SCORE.INTRA.POLAR.0>
0

>  <SCORE.INTRA.REPUL>
0

>  <SCORE.INTRA.REPUL.0>
0

>  <SCORE.INTRA.VDW>
-0.352644

>  <SCORE.INTRA.VDW.0>
-0.659188

>  <SCORE.INTRA.norm>
-0.0172775

>  <SCORE.RESTR>
0

>  <SCORE.RESTR.CAVITY>
0

>  <SCORE.RESTR.norm>
0

>  <SCORE.SYSTEM>
1.0218

>  <SCORE.SYSTEM.CONST>
0

>  <SCORE.SYSTEM.DIHEDRAL>
0.0276649

>  <SCORE.SYSTEM.REPUL>
0.136783

>  <SCORE.SYSTEM.VDW>
0.324051

>  <SCORE.SYSTEM.norm>
0.0638625

>  <SCORE.heavy>
16

>  <SCORE.norm>
-0.945831

>  <enum_code>
M

>  <enum_smi>
Cc1sc2nc(SC(C)C)[nH+]c(N)c2c1C

>  <sha256>
f184dd6951dd47e0055fc30c5b0e95ad9abd5d41652c716f1f97c53591a4cb37

>  <std_smi>
Cc1sc2nc(SC(C)C)nc(N)c2c1C

>  <uuid>
782bf74c-db09-40b7-a061-695a3266123c

$$$$
782bf74c-db09-40b7-a061-695a3266123c
  rDOCK(R)          3D
libRbt.so/2013.1/901 2013/11/27
 19 20  0  0  0  0  0  0  0  0999 V2000
   -2.0276   33.5928    2.7267 C   0  0  0  0  0  0
   -1.7987   32.1337    2.9783 C   0  0  0  0  0  0
   -2.0785   31.5075    4.5390 S   0  0  0  0  0  0
   -1.6379   29.9434    4.0649 C   0  0  0  0  0  0
   -1.6648   28.9465    4.9622 N   0  0  0  0  0  0
   -1.2812   27.7868    4.4439 C   0  0  0  0  0  0
   -1.2446   26.3138    5.4240 S   0  0  0  0  0  0
   -2.7855   25.4050    4.9692 C   0  0  0  0  0  0
   -2.8452   23.9971    5.5535 C   0  0  0  0  0  0
   -4.0517   26.2132    5.2342 C   0  0  0  0  0  0
   -0.9317   27.6152    3.1751 N   0  3  0  0  0  0
   -0.9007   28.5671    2.2494 C   0  0  0  0  0  0
   -0.5167   28.2403    0.9696 N   0  0  0  0  0  0
   -1.2742   29.8458    2.7267 C   0  0  0  0  0  0
   -1.3669   31.1571    2.0883 C   0  0  0  0  0  0
   -1.0399   31.4359    0.6515 C   0  0  0  0  0  0
   -0.6702   26.6713    2.9204 H   0  0  0  0  0  0
   -0.3577   27.2963    0.6416 H   0  0  0  0  0  0
   -0.5633   28.9418    0.2381 H   0  0  0  0  0  0
  1  2  1  0  0  0
  2  3  1  0  0  0
  3  4  1  0  0  0
  4  5  2  0  0  0
  5  6  1  0  0  0
  6  7  1  0  0  0
  7  8  1  0  0  0
  8  9  1  0  0  0
  8 10  1  0  0  0
  6 11  2  0  0  0
 11 12  1  0  0  0
 12 13  1  0  0  0
 12 14  2  0  0  0
 14 15  1  0  0  0
 15 16  1  0  0  0
 15  2  2  0  0  0
 14  4  1  0  0  0
 11 17  1  0  0  0
 13 18  1  0  0  0
 13 19  1  0  0  0
M  END
>  <CHROM.0>
-59.88758699,68.95604310

>  <CHROM.1>
100.64764181,171.37770729,-1.71796730,28.86785997,3.73956811,1.31010261,1.13571825
-0.15745243

>  <Name>
782bf74c-db09-40b7-a061-695a3266123c

>  <RI>
2.1833e+07

>  <Rbt.Current_Directory>
/data/work/jku/5V6S/work/40/8dba899c20c42488f2b1a17844994e

>  <Rbt.Executable>
rbdock ($Id: //depot/dev/client3/rdock/2013.1/src/exe/rbdock.cxx#4 $)

>  <Rbt.Library>
libRbt.so (2013.1, Build901 2013/11/27)

>  <Rbt.Parameter_File>
/rDock_2013.1_src/data/scripts/dock.prm

>  <Rbt.Receptor>
docking.prm

>  <SCORE>
-18.6238

>  <SCORE.INTER>
-17.0169

>  <SCORE.INTER.CONST>
1

>  <SCORE.INTER.POLAR>
-0.945719

>  <SCORE.INTER.REPUL>
0

>  <SCORE.INTER.ROT>
2

>  <SCORE.INTER.VDW>
-21.2014

>  <SCORE.INTER.norm>
-1.06356

>  <SCORE.INTRA>
-0.0932754

>  <SCORE.INTRA.DIHEDRAL>
0.104924

>  <SCORE.INTRA.DIHEDRAL.0>
2.04107

>  <SCORE.INTRA.POLAR>
0

>  <SCORE.INTRA.POLAR.0>
0

>  <SCORE.INTRA.REPUL>
0

>  <SCORE.INTRA.REPUL.0>
0

>  <SCORE.INTRA.VDW>
-0.145737

>  <SCORE.INTRA.VDW.0>
-0.659188

>  <SCORE.INTRA.norm>
-0.00582971

>  <SCORE.RESTR>
0

>  <SCORE.RESTR.CAVITY>
0

>  <SCORE.RESTR.norm>
0

>  <SCORE.SYSTEM>
-1.51366

>  <SCORE.SYSTEM.CONST>
0

>  <SCORE.SYSTEM.DIHEDRAL>
0.396255

>  <SCORE.SYSTEM.POLAR>
-0.502958

>  <SCORE.SYSTEM.VDW>
-0.00172782

>  <SCORE.SYSTEM.norm>
-0.0946037

>  <SCORE.heavy>
16

>  <SCORE.norm>
-1.16399

>  <enum_code>
M

>  <enum_smi>
Cc1sc2nc(SC(C)C)[nH+]c(N)c2c1C

>  <sha256>
f184dd6951dd47e0055fc30c5b0e95ad9abd5d41652c716f1f97c53591a4cb37

>  <std_smi>
Cc1sc2nc(SC(C)C)nc(N)c2c1C

>  <uuid>
782bf74c-db09-40b7-a061-695a3266123c

$$$$
782bf74c-db09-40b7-a061-695a3266123c
  rDOCK(R)          3D
libRbt.so/2013.1/901 2013/11/27
 19 20  0  0  0  0  0  0  0  0999 V2000
   -1.9710   33.6186    2.7165 C   0  0  0  0  0  0
   -1.7550   32.1583    2.9725 C   0  0  0  0  0  0
   -2.0330   31.5408    4.5371 S   0  0  0  0  0  0
   -1.6101   29.9706    4.0667 C   0  0  0  0  0  0
   -1.6421   28.9775    4.9679 N   0  0  0  0  0  0
   -1.2726   27.8121    4.4521 C   0  0  0  0  0  0
   -1.2453   26.3426    5.4377 S   0  0  0  0  0  0
   -2.7400   25.3945    4.9141 C   0  0  0  0  0  0
   -2.8040   23.9953    5.5185 C   0  0  0  0  0  0
   -4.0349   26.1802    5.0946 C   0  0  0  0  0  0
   -0.9313   27.6323    3.1823 N   0  3  0  0  0  0
   -0.8958   28.5804    2.2528 C   0  0  0  0  0  0
   -0.5215   28.2449    0.9723 N   0  0  0  0  0  0
   -1.2543   29.8644    2.7270 C   0  0  0  0  0  0
   -1.3374   31.1741    2.0841 C   0  0  0  0  0  0
   -1.0151   31.4443    0.6446 C   0  0  0  0  0  0
   -0.6803   26.6849    2.9298 H   0  0  0  0  0  0
   -0.3735   27.2982    0.6470 H   0  0  0  0  0  0
   -0.5651   28.9440    0.2383 H   0  0  0  0  0  0
  1  2  1  0  0  0
  2  3  1  0  0  0
  3  4  1  0  0  0
  4  5  2  0  0  0
  5  6  1  0  0  0
  6  7  1  0  0  0
  7  8  1  0  0  0
  8  9  1  0  0  0
  8 10  1  0  0  0
  6 11  2  0  0  0
 11 12  1  0  0  0
 12 13  1  0  0  0
 12 14  2  0  0  0
 14 15  1  0  0  0
 15 16  1  0  0  0
 15  2  2  0  0  0
 14  4  1  0  0  0
 11 17  1  0  0  0
 13 18  1  0  0  0
 13 19  1  0  0  0
M  END
>  <CHROM.0>
-59.88758699,179.29869103

>  <CHROM.1>
104.23628119,172.35869186,-1.69449747,28.88401145,3.72797459,1.29241145,1.15818242
-0.13049907

>  <Name>
782bf74c-db09-40b7-a061-695a3266123c

>  <RI>
2.1833e+07

>  <Rbt.Current_Directory>
/data/work/jku/5V6S/work/40/8dba899c20c42488f2b1a17844994e

>  <Rbt.Executable>
rbdock ($Id: //depot/dev/client3/rdock/2013.1/src/exe/rbdock.cxx#4 $)

>  <Rbt.Library>
libRbt.so (2013.1, Build901 2013/11/27)

>  <Rbt.Parameter_File>
/rDock_2013.1_src/data/scripts/dock.prm

>  <Rbt.Receptor>
docking.prm

>  <SCORE>
-17.3322

>  <SCORE.INTER>
-16.989

>  <SCORE.INTER.CONST>
1

>  <SCORE.INTER.POLAR>
-0.950693

>  <SCORE.INTER.REPUL>
0

>  <SCORE.INTER.ROT>
2

>  <SCORE.INTER.VDW>
-21.1566

>  <SCORE.INTER.norm>
-1.06181

>  <SCORE.INTRA>
-0.0724745

>  <SCORE.INTRA.DIHEDRAL>
0.0915221

>  <SCORE.INTRA.DIHEDRAL.0>
2.04107

>  <SCORE.INTRA.POLAR>
0

>  <SCORE.INTRA.POLAR.0>
0

>  <SCORE.INTRA.REPUL>
0

>  <SCORE.INTRA.REPUL.0>
0

>  <SCORE.INTRA.VDW>
-0.118235

>  <SCORE.INTRA.VDW.0>
-0.659188

>  <SCORE.INTRA.norm>
-0.00452965

>  <SCORE.RESTR>
0

>  <SCORE.RESTR.CAVITY>
0

>  <SCORE.RESTR.norm>
0

>  <SCORE.SYSTEM>
-0.270771

>  <SCORE.SYSTEM.CONST>
0

>  <SCORE.SYSTEM.DIHEDRAL>
0.0100581

>  <SCORE.SYSTEM.VDW>
-0.2758

>  <SCORE.SYSTEM.norm>
-0.0169232

>  <SCORE.heavy>
16

>  <SCORE.norm>
-1.08326

>  <enum_code>
M

>  <enum_smi>
Cc1sc2nc(SC(C)C)[nH+]c(N)c2c1C

>  <sha256>
f184dd6951dd47e0055fc30c5b0e95ad9abd5d41652c716f1f97c53591a4cb37

>  <std_smi>
Cc1sc2nc(SC(C)C)nc(N)c2c1C

>  <uuid>
782bf74c-db09-40b7-a061-695a3266123c

$$$$
782bf74c-db09-40b7-a061-695a3266123c
  rDOCK(R)          3D
libRbt.so/2013.1/901 2013/11/27
 19 20  0  0  0  0  0  0  0  0999 V2000
   -0.6235   31.8407    0.3781 C   0  0  0  0  0  0
   -0.9452   31.0883    1.6331 C   0  0  0  0  0  0
   -0.8238   29.3878    1.6345 S   0  0  0  0  0  0
   -1.3032   29.2867    3.2549 C   0  0  0  0  0  0
   -1.3990   28.0853    3.8440 N   0  0  0  0  0  0
   -1.7976   28.1697    5.1068 C   0  0  0  0  0  0
   -1.9873   26.7211    6.1053 S   0  0  0  0  0  0
   -2.8497   25.5058    5.0160 C   0  0  0  0  0  0
   -2.8115   24.0811    5.5600 C   0  0  0  0  0  0
   -4.2531   25.9542    4.6207 C   0  0  0  0  0  0
   -2.0521   29.3109    5.7347 N   0  3  0  0  0  0
   -1.9604   30.5223    5.1978 C   0  0  0  0  0  0
   -2.2562   31.6194    5.9732 N   0  0  0  0  0  0
   -1.5625   30.5209    3.8399 C   0  0  0  0  0  0
   -1.3527   31.5886    2.8644 C   0  0  0  0  0  0
   -1.5485   33.0500    3.1378 C   0  0  0  0  0  0
   -2.3395   29.2205    6.7008 H   0  0  0  0  0  0
   -2.4357   31.5870    6.9685 H   0  0  0  0  0  0
   -2.1155   32.5511    5.5971 H   0  0  0  0  0  0
  1  2  1  0  0  0
  2  3  1  0  0  0
  3  4  1  0  0  0
  4  5  2  0  0  0
  5  6  1  0  0  0
  6  7  1  0  0  0
  7  8  1  0  0  0
  8  9  1  0  0  0
  8 10  1  0  0  0
  6 11  2  0  0  0
 11 12  1  0  0  0
 12 13  1  0  0  0
 12 14  2  0  0  0
 14 15  1  0  0  0
 15 16  1  0  0  0
 15  2  2  0  0  0
 14  4  1  0  0  0
 11 17  1  0  0  0
 13 18  1  0  0  0
 13 19  1  0  0  0
M  END
>  <CHROM.0>
-59.88758699,68.68535522

>  <CHROM.1>
-43.96018439,165.97336516,-1.80880229,28.99439408,4.00813306,-0.59633816
-1.27890648,-2.71007655

>  <Name>
782bf74c-db09-40b7-a061-695a3266123c

>  <RI>
2.1833e+07

>  <Rbt.Current_Directory>
/data/work/jku/5V6S/work/40/8dba899c20c42488f2b1a17844994e

>  <Rbt.Executable>
rbdock ($Id: //depot/dev/client3/rdock/2013.1/src/exe/rbdock.cxx#4 $)

>  <Rbt.Library>
libRbt.so (2013.1, Build901 2013/11/27)

>  <Rbt.Parameter_File>
/rDock_2013.1_src/data/scripts/dock.prm

>  <Rbt.Receptor>
docking.prm

>  <SCORE>
-18.0868

>  <SCORE.INTER>
-16.6692

>  <SCORE.INTER.CONST>
1

>  <SCORE.INTER.POLAR>
-0.721182

>  <SCORE.INTER.REPUL>
0

>  <SCORE.INTER.ROT>
2

>  <SCORE.INTER.VDW>
-21.6171

>  <SCORE.INTER.norm>
-1.04182

>  <SCORE.INTRA>
0.0957562

>  <SCORE.INTRA.DIHEDRAL>
0.28214

>  <SCORE.INTRA.DIHEDRAL.0>
2.04107

>  <SCORE.INTRA.POLAR>
0

>  <SCORE.INTRA.POLAR.0>
0

>  <SCORE.INTRA.REPUL>
0

>  <SCORE.INTRA.REPUL.0>
0

>  <SCORE.INTRA.VDW>
-0.0453141

>  <SCORE.INTRA.VDW.0>
-0.659188

>  <SCORE.INTRA.norm>
0.00598476

>  <SCORE.RESTR>
0

>  <SCORE.RESTR.CAVITY>
0

>  <SCORE.RESTR.norm>
0

>  <SCORE.SYSTEM>
-1.51343

>  <SCORE.SYSTEM.CONST>
0

>  <SCORE.SYSTEM.DIHEDRAL>
0.373519

>  <SCORE.SYSTEM.POLAR>
-0.502753

>  <SCORE.SYSTEM.VDW>
0.00917231

>  <SCORE.SYSTEM.norm>
-0.0945894

>  <SCORE.heavy>
16

>  <SCORE.norm>
-1.13043

>  <enum_code>
M

>  <enum_smi>
Cc1sc2nc(SC(C)C)[nH+]c(N)c2c1C

>  <sha256>
f184dd6951dd47e0055fc30c5b0e95ad9abd5d41652c716f1f97c53591a4cb37

>  <std_smi>
Cc1sc2nc(SC(C)C)nc(N)c2c1C

>  <uuid>
782bf74c-db09-40b7-a061-695a3266123c

$$$$
782bf74c-db09-40b7-a061-695a3266123c
  rDOCK(R)          3D
libRbt.so/2013.1/901 2013/11/27
 19 20  0  0  0  0  0  0  0  0999 V2000
   -1.5644   33.7178    2.6691 C   0  0  0  0  0  0
   -1.5660   32.2376    2.9010 C   0  0  0  0  0  0
   -2.1351   31.6322    4.3896 S   0  0  0  0  0  0
   -1.8442   30.0300    3.9272 C   0  0  0  0  0  0
   -2.1236   29.0329    4.7800 N   0  0  0  0  0  0
   -1.8295   27.8397    4.2795 C   0  0  0  0  0  0
   -2.1205   26.3611    5.2072 S   0  0  0  0  0  0
   -0.6045   25.3388    4.9550 C   0  0  0  0  0  0
    0.3954   25.4571    6.1011 C   0  0  0  0  0  0
   -0.9183   23.8923    4.5863 C   0  0  0  0  0  0
   -1.3368   27.6411    3.0633 N   0  3  0  0  0  0
   -1.0553   28.5936    2.1815 C   0  0  0  0  0  0
   -0.5476   28.2366    0.9538 N   0  0  0  0  0  0
   -1.3184   29.9038    2.6465 C   0  0  0  0  0  0
   -1.1500   31.2248    2.0447 C   0  0  0  0  0  0
   -0.5972   31.4779    0.6737 C   0  0  0  0  0  0
   -1.1698   26.6744    2.8148 H   0  0  0  0  0  0
   -0.4714   27.2847    0.6191 H   0  0  0  0  0  0
   -0.4018   28.9486    0.2459 H   0  0  0  0  0  0
  1  2  1  0  0  0
  2  3  1  0  0  0
  3  4  1  0  0  0
  4  5  2  0  0  0
  5  6  1  0  0  0
  6  7  1  0  0  0
  7  8  1  0  0  0
  8  9  1  0  0  0
  8 10  1  0  0  0
  6 11  2  0  0  0
 11 12  1  0  0  0
 12 13  1  0  0  0
 12 14  2  0  0  0
 14 15  1  0  0  0
 15 16  1  0  0  0
 15  2  2  0  0  0
 14  4  1  0  0  0
 11 17  1  0  0  0
 13 18  1  0  0  0
 13 19  1  0  0  0
M  END
>  <CHROM.0>
-59.88758699,69.13739624

>  <CHROM.1>
-136.40553842,97.80497389,-1.36845768,28.86979167,3.64017384,1.76166703,1.20796175
-0.52501282

>  <Name>
782bf74c-db09-40b7-a061-695a3266123c

>  <RI>
2.1833e+07

>  <Rbt.Current_Directory>
/data/work/jku/5V6S/work/40/8dba899c20c42488f2b1a17844994e

>  <Rbt.Executable>
rbdock ($Id: //depot/dev/client3/rdock/2013.1/src/exe/rbdock.cxx#4 $)

>  <Rbt.Library>
libRbt.so (2013.1, Build901 2013/11/27)

>  <Rbt.Parameter_File>
/rDock_2013.1_src/data/scripts/dock.prm

>  <Rbt.Receptor>
docking.prm

>  <SCORE>
-15.8421

>  <SCORE.INTER>
-15.0454

>  <SCORE.INTER.CONST>
1

>  <SCORE.INTER.POLAR>
-0.833149

>  <SCORE.INTER.REPUL>
0

>  <SCORE.INTER.ROT>
2

>  <SCORE.INTER.VDW>
-19.6127

>  <SCORE.INTER.norm>
-0.940336

>  <SCORE.INTRA>
0.71668

>  <SCORE.INTRA.DIHEDRAL>
1.53446

>  <SCORE.INTRA.DIHEDRAL.0>
2.04107

>  <SCORE.INTRA.POLAR>
0

>  <SCORE.INTRA.POLAR.0>
0

>  <SCORE.INTRA.REPUL>
0

>  <SCORE.INTRA.REPUL.0>
0

>  <SCORE.INTRA.VDW>
-0.050552

>  <SCORE.INTRA.VDW.0>
-0.659188

>  <SCORE.INTRA.norm>
0.0447925

>  <SCORE.RESTR>
0

>  <SCORE.RESTR.CAVITY>
0

>  <SCORE.RESTR.norm>
0

>  <SCORE.SYSTEM>
-1.51342

>  <SCORE.SYSTEM.CONST>
0

>  <SCORE.SYSTEM.DIHEDRAL>
0.411848

>  <SCORE.SYSTEM.POLAR>
-0.503062

>  <SCORE.SYSTEM.VDW>
-0.00893675

>  <SCORE.SYSTEM.norm>
-0.094589

>  <SCORE.heavy>
16

>  <SCORE.norm>
-0.990132

>  <enum_code>
M

>  <enum_smi>
Cc1sc2nc(SC(C)C)[nH+]c(N)c2c1C

>  <sha256>
f184dd6951dd47e0055fc30c5b0e95ad9abd5d41652c716f1f97c53591a4cb37

>  <std_smi>
Cc1sc2nc(SC(C)C)nc(N)c2c1C

>  <uuid>
782bf74c-db09-40b7-a061-695a3266123c

$$$$
32b193ba-a25e-435b-8b5e-a3340f91557d
  rDOCK(R)          3D
libRbt.so/2013.1/901 2013/11/27
 20 21  0  0  0  0  0  0  0  0999 V2000
    0.0741   32.6805    0.5306 C   0  0  0  0  0  0
   -0.5889   31.7531    1.5088 C   0  0  0  0  0  0
   -0.9675   30.1697    1.0070 S   0  0  0  0  0  0
   -1.6261   29.7772    2.5117 C   0  0  0  0  0  0
   -2.1250   28.5523    2.7186 N   0  0  0  0  0  0
   -2.6141   28.3771    3.9354 C   0  0  0  0  0  0
   -3.3140   26.8356    4.4315 S   0  0  0  0  0  0
   -1.8232   25.8623    4.9165 C   0  0  0  0  0  0
   -2.1862   24.3915    5.1018 C   0  0  0  0  0  0
   -1.2777   26.4452    6.2186 C   0  0  0  0  0  0
   -2.6117   29.3148    4.8807 N   0  3  0  0  0  0
   -2.1213   30.5405    4.7096 C   0  0  0  0  0  0
   -2.1097   31.5713    5.7274 N   0  3  0  0  0  0
   -1.5833   30.8167    3.4339 C   0  0  0  0  0  0
   -0.9611   31.9971    2.8273 C   0  0  0  0  0  0
   -0.7308   33.3227    3.4964 C   0  0  0  0  0  0
   -3.0245   28.9932    5.7533 H   0  0  0  0  0  0
   -2.4164   32.4728    5.3270 H   0  0  0  0  0  0
   -1.1970   31.7347    6.1706 H   0  0  0  0  0  0
   -2.7749   31.3370    6.4822 H   0  0  0  0  0  0
  1  2  1  0  0  0
  2  3  1  0  0  0
  3  4  1  0  0  0
  4  5  2  0  0  0
  5  6  1  0  0  0
  6  7  1  0  0  0
  7  8  1  0  0  0
  8  9  1  0  0  0
  8 10  1  0  0  0
  6 11  2  0  0  0
 11 12  1  0  0  0
 12 13  1  0  0  0
 12 14  2  0  0  0
 14 15  1  0  0  0
 15 16  1  0  0  0
 15  2  2  0  0  0
 14  4  1  0  0  0
 11 17  1  0  0  0
 13 18  1  0  0  0
 13 19  1  0  0  0
 13 20  1  0  0  0
M  END
>  <CHROM.0>
-59.88758699,68.72190562

>  <CHROM.1>
83.20175248,-168.09116342,-135.13733342,-1.73212640,29.36762250,3.55145374
-0.57438512,-1.27339898,-2.64383874

>  <Name>
32b193ba-a25e-435b-8b5e-a3340f91557d

>  <RI>
2.26153e+07

>  <Rbt.Current_Directory>
/data/work/jku/5V6S/work/40/8dba899c20c42488f2b1a17844994e

>  <Rbt.Executable>
rbdock ($Id: //depot/dev/client3/rdock/2013.1/src/exe/rbdock.cxx#4 $)

>  <Rbt.Library>
libRbt.so (2013.1, Build901 2013/11/27)

>  <Rbt.Parameter_File>
/rDock_2013.1_src/data/scripts/dock.prm

>  <Rbt.Receptor>
docking.prm

>  <SCORE>
-17.4518

>  <SCORE.INTER>
-15.7515

>  <SCORE.INTER.CONST>
1

>  <SCORE.INTER.POLAR>
-0.785337

>  <SCORE.INTER.REPUL>
0

>  <SCORE.INTER.ROT>
2

>  <SCORE.INTER.VDW>
-20.4814

>  <SCORE.INTER.norm>
-0.984471

>  <SCORE.INTRA>
-0.186786

>  <SCORE.INTRA.DIHEDRAL>
-0.301919

>  <SCORE.INTRA.DIHEDRAL.0>
3.21359

>  <SCORE.INTRA.POLAR>
0

>  <SCORE.INTRA.POLAR.0>
0

>  <SCORE.INTRA.REPUL>
0

>  <SCORE.INTRA.REPUL.0>
0

>  <SCORE.INTRA.VDW>
-0.0358263

>  <SCORE.INTRA.VDW.0>
-1.02092

>  <SCORE.INTRA.norm>
-0.0116741

>  <SCORE.RESTR>
0

>  <SCORE.RESTR.CAVITY>
0

>  <SCORE.RESTR.norm>
0

>  <SCORE.SYSTEM>
-1.5135

>  <SCORE.SYSTEM.CONST>
0

>  <SCORE.SYSTEM.DIHEDRAL>
0.376551

>  <SCORE.SYSTEM.POLAR>
-0.502785

>  <SCORE.SYSTEM.VDW>
0.00769064

>  <SCORE.SYSTEM.norm>
-0.0945938

>  <SCORE.heavy>
16

>  <SCORE.norm>
-1.09074

>  <enum_code>
M

>  <enum_smi>
Cc1sc2nc(SC(C)C)[nH+]c([NH3+])c2c1C

>  <sha256>
f184dd6951dd47e0055fc30c5b0e95ad9abd5d41652c716f1f97c53591a4cb37

>  <std_smi>
Cc1sc2nc(SC(C)C)nc(N)c2c1C

>  <uuid>
32b193ba-a25e-435b-8b5e-a3340f91557d

$$$$
32b193ba-a25e-435b-8b5e-a3340f91557d
  rDOCK(R)          3D
libRbt.so/2013.1/901 2013/11/27
 20 21  0  0  0  0  0  0  0  0999 V2000
   -1.3511   26.1280    4.5728 C   0  0  0  0  0  0
   -1.2995   27.5218    4.0149 C   0  0  0  0  0  0
   -0.8160   27.7372    2.3957 S   0  0  0  0  0  0
   -0.9930   29.4138    2.4943 C   0  0  0  0  0  0
   -0.7278   30.1732    1.4244 N   0  0  0  0  0  0
   -0.9008   31.4677    1.6363 C   0  0  0  0  0  0
   -0.6183   32.6536    0.3612 S   0  0  0  0  0  0
    1.2184   32.6167    0.1868 C   0  0  0  0  0  0
    1.6557   33.4624   -1.0060 C   0  0  0  0  0  0
    1.6489   31.1637   -0.0030 C   0  0  0  0  0  0
   -1.3077   31.9844    2.7940 N   0  3  0  0  0  0
   -1.5829   31.2585    3.8754 C   0  0  0  0  0  0
   -2.0277   31.8046    5.1413 N   0  3  0  0  0  0
   -1.4182   29.8630    3.7394 C   0  0  0  0  0  0
   -1.5999   28.7253    4.6455 C   0  0  0  0  0  0
   -2.0497   28.7932    6.0777 C   0  0  0  0  0  0
   -1.3888   32.9982    2.7641 H   0  0  0  0  0  0
   -2.9478   31.4108    5.3973 H   0  0  0  0  0  0
   -2.1221   32.8277    5.1646 H   0  0  0  0  0  0
   -1.3704   31.5442    5.8946 H   0  0  0  0  0  0
  1  2  1  0  0  0
  2  3  1  0  0  0
  3  4  1  0  0  0
  4  5  2  0  0  0
  5  6  1  0  0  0
  6  7  1  0  0  0
  7  8  1  0  0  0
  8  9  1  0  0  0
  8 10  1  0  0  0
  6 11  2  0  0  0
 11 12  1  0  0  0
 12 13  1  0  0  0
 12 14  2  0  0  0
 14 15  1  0  0  0
 15 16  1  0  0  0
 15  2  2  0  0  0
 14  4  1  0  0  0
 11 17  1  0  0  0
 13 18  1  0  0  0
 13 19  1  0  0  0
 13 20  1  0  0  0
M  END
>  <CHROM.0>
-59.88758699,68.64039884

>  <CHROM.1>
-70.63401692,172.92080968,120.90490574,-0.74388462,30.32546104,2.47202046
-2.25520133,1.04804000,-0.15894838

>  <Name>
32b193ba-a25e-435b-8b5e-a3340f91557d

>  <RI>
2.26153e+07

>  <Rbt.Current_Directory>
/data/work/jku/5V6S/work/40/8dba899c20c42488f2b1a17844994e

>  <Rbt.Executable>
rbdock ($Id: //depot/dev/client3/rdock/2013.1/src/exe/rbdock.cxx#4 $)

>  <Rbt.Library>
libRbt.so (2013.1, Build901 2013/11/27)

>  <Rbt.Parameter_File>
/rDock_2013.1_src/data/scripts/dock.prm

>  <Rbt.Receptor>
docking.prm

>  <SCORE>
-14.0063

>  <SCORE.INTER>
-12.88

>  <SCORE.INTER.CONST>
1

>  <SCORE.INTER.POLAR>
-1.0435

>  <SCORE.INTER.REPUL>
0.343646

>  <SCORE.INTER.ROT>
2

>  <SCORE.INTER.VDW>
-18.4503

>  <SCORE.INTER.norm>
-0.805

>  <SCORE.INTRA>
0.387033

>  <SCORE.INTRA.DIHEDRAL>
-0.392098

>  <SCORE.INTRA.DIHEDRAL.0>
3.21359

>  <SCORE.INTRA.POLAR>
0

>  <SCORE.INTRA.POLAR.0>
0

>  <SCORE.INTRA.REPUL>
0

>  <SCORE.INTRA.REPUL.0>
0

>  <SCORE.INTRA.VDW>
0.583082

>  <SCORE.INTRA.VDW.0>
-1.02092

>  <SCORE.INTRA.norm>
0.0241896

>  <SCORE.RESTR>
0

>  <SCORE.RESTR.CAVITY>
0

>  <SCORE.RESTR.norm>
0

>  <SCORE.SYSTEM>
-1.51332

>  <SCORE.SYSTEM.CONST>
0

>  <SCORE.SYSTEM.DIHEDRAL>
0.369805

>  <SCORE.SYSTEM.POLAR>
-0.502714

>  <SCORE.SYSTEM.VDW>
0.010999

>  <SCORE.SYSTEM.norm>
-0.0945828

>  <SCORE.heavy>
16

>  <SCORE.norm>
-0.875393

>  <enum_code>
M

>  <enum_smi>
Cc1sc2nc(SC(C)C)[nH+]c([NH3+])c2c1C

>  <sha256>
f184dd6951dd47e0055fc30c5b0e95ad9abd5d41652c716f1f97c53591a4cb37

>  <std_smi>
Cc1sc2nc(SC(C)C)nc(N)c2c1C

>  <uuid>
32b193ba-a25e-435b-8b5e-a3340f91557d

$$$$
32b193ba-a25e-435b-8b5e-a3340f91557d
  rDOCK(R)          3D
libRbt.so/2013.1/901 2013/11/27
 20 21  0  0  0  0  0  0  0  0999 V2000
   -0.5857   31.5508    0.2813 C   0  0  0  0  0  0
   -0.9235   30.8469    1.5646 C   0  0  0  0  0  0
   -0.8846   29.1441    1.5981 S   0  0  0  0  0  0
   -1.3364   29.0977    3.2246 C   0  0  0  0  0  0
   -1.4745   27.9178    3.8417 N   0  0  0  0  0  0
   -1.8366   28.0214    5.1100 C   0  0  0  0  0  0
   -2.0680   26.5932    6.1194 S   0  0  0  0  0  0
   -3.0293   25.4760    5.0092 C   0  0  0  0  0  0
   -4.4775   25.9468    4.9066 C   0  0  0  0  0  0
   -2.9673   24.0634    5.5866 C   0  0  0  0  0  0
   -2.0406   29.1800    5.7335 N   0  3  0  0  0  0
   -1.9090   30.3699    5.1513 C   0  0  0  0  0  0
   -2.1257   31.6391    5.8153 N   0  3  0  0  0  0
   -1.5303   30.3523    3.7914 C   0  0  0  0  0  0
   -1.2814   31.3955    2.7922 C   0  0  0  0  0  0
   -1.3850   32.8785    3.0115 C   0  0  0  0  0  0
   -2.3069   29.0595    6.7081 H   0  0  0  0  0  0
   -2.4220   31.4853    6.7930 H   0  0  0  0  0  0
   -2.8332   32.2432    5.3788 H   0  0  0  0  0  0
   -1.2462   32.1798    5.8504 H   0  0  0  0  0  0
  1  2  1  0  0  0
  2  3  1  0  0  0
  3  4  1  0  0  0
  4  5  2  0  0  0
  5  6  1  0  0  0
  6  7  1  0  0  0
  7  8  1  0  0  0
  8  9  1  0  0  0
  8 10  1  0  0  0
  6 11  2  0  0  0
 11 12  1  0  0  0
 12 13  1  0  0  0
 12 14  2  0  0  0
 14 15  1  0  0  0
 15 16  1  0  0  0
 15  2  2  0  0  0
 14  4  1  0  0  0
 11 17  1  0  0  0
 13 18  1  0  0  0
 13 19  1  0  0  0
 13 20  1  0  0  0
M  END
>  <CHROM.0>
-59.88758699,68.83570402

>  <CHROM.1>
-44.64160216,-74.91594910,-1.63043374,-1.83811681,28.86122771,3.99478701
-0.48508123,-1.26450238,-2.62407926

>  <Name>
32b193ba-a25e-435b-8b5e-a3340f91557d

>  <RI>
2.26153e+07

>  <Rbt.Current_Directory>
/data/work/jku/5V6S/work/40/8dba899c20c42488f2b1a17844994e

>  <Rbt.Executable>
rbdock ($Id: //depot/dev/client3/rdock/2013.1/src/exe/rbdock.cxx#4 $)

>  <Rbt.Library>
libRbt.so (2013.1, Build901 2013/11/27)

>  <Rbt.Parameter_File>
/rDock_2013.1_src/data/scripts/dock.prm

>  <Rbt.Receptor>
docking.prm

>  <SCORE>
-16.4857

>  <SCORE.INTER>
-14.7084

>  <SCORE.INTER.CONST>
1

>  <SCORE.INTER.POLAR>
-0.0991879

>  <SCORE.INTER.REPUL>
0

>  <SCORE.INTER.ROT>
2

>  <SCORE.INTER.VDW>
-21.7712

>  <SCORE.INTER.norm>
-0.919276

>  <SCORE.INTRA>
-0.263683

>  <SCORE.INTRA.DIHEDRAL>
-0.172532

>  <SCORE.INTRA.DIHEDRAL.0>
3.21359

>  <SCORE.INTRA.POLAR>
0

>  <SCORE.INTRA.POLAR.0>
0

>  <SCORE.INTRA.REPUL>
0

>  <SCORE.INTRA.REPUL.0>
0

>  <SCORE.INTRA.VDW>
-0.177417

>  <SCORE.INTRA.VDW.0>
-1.02092

>  <SCORE.INTRA.norm>
-0.0164802

>  <SCORE.RESTR>
0

>  <SCORE.RESTR.CAVITY>
0

>  <SCORE.RESTR.norm>
0

>  <SCORE.SYSTEM>
-1.51364

>  <SCORE.SYSTEM.CONST>
0

>  <SCORE.SYSTEM.DIHEDRAL>
0.386067

>  <SCORE.SYSTEM.POLAR>
-0.502875

>  <SCORE.SYSTEM.VDW>
0.00309723

>  <SCORE.SYSTEM.norm>
-0.0946027

>  <SCORE.heavy>
16

>  <SCORE.norm>
-1.03036

>  <enum_code>
M

>  <enum_smi>
Cc1sc2nc(SC(C)C)[nH+]c([NH3+])c2c1C

>  <sha256>
f184dd6951dd47e0055fc30c5b0e95ad9abd5d41652c716f1f97c53591a4cb37

>  <std_smi>
Cc1sc2nc(SC(C)C)nc(N)c2c1C

>  <uuid>
32b193ba-a25e-435b-8b5e-a3340f91557d

$$$$
32b193ba-a25e-435b-8b5e-a3340f91557d
  rDOCK(R)          3D
libRbt.so/2013.1/901 2013/11/27
 20 21  0  0  0  0  0  0  0  0999 V2000
   -4.5029   21.8975    3.6384 C   0  0  0  0  0  0
   -4.8492   23.3225    3.9638 C   0  0  0  0  0  0
   -3.6890   24.2856    4.7566 S   0  0  0  0  0  0
   -4.7149   25.6268    4.7749 C   0  0  0  0  0  0
   -4.2971   26.7745    5.3227 N   0  0  0  0  0  0
   -5.1972   27.7432    5.2767 C   0  0  0  0  0  0
   -4.8574   29.3455    5.9318 S   0  0  0  0  0  0
   -3.1594   29.6819    5.2927 C   0  0  0  0  0  0
   -2.1350   28.8219    6.0278 C   0  0  0  0  0  0
   -2.8582   31.1648    5.5005 C   0  0  0  0  0  0
   -6.4057   27.6110    4.7337 N   0  3  0  0  0  0
   -6.8513   26.4862    4.1783 C   0  0  0  0  0  0
   -8.1619   26.3262    3.5823 N   0  3  0  0  0  0
   -5.9547   25.3957    4.1898 C   0  0  0  0  0  0
   -6.0289   24.0141    3.7060 C   0  0  0  0  0  0
   -7.2013   23.3763    3.0153 C   0  0  0  0  0  0
   -6.9551   28.4658    4.7864 H   0  0  0  0  0  0
   -8.7782   25.7874    4.2125 H   0  0  0  0  0  0
   -8.1707   25.8479    2.6728 H   0  0  0  0  0  0
   -8.6074   27.2479    3.4437 H   0  0  0  0  0  0
  1  2  1  0  0  0
  2  3  1  0  0  0
  3  4  1  0  0  0
  4  5  2  0  0  0
  5  6  1  0  0  0
  6  7  1  0  0  0
  7  8  1  0  0  0
  8  9  1  0  0  0
  8 10  1  0  0  0
  6 11  2  0  0  0
 11 12  1  0  0  0
 12 13  1  0  0  0
 12 14  2  0  0  0
 14 15  1  0  0  0
 15 16  1  0  0  0
 15  2  2  0  0  0
 14  4  1  0  0  0
 11 17  1  0  0  0
 13 18  1  0  0  0
 13 19  1  0  0  0
 13 20  1  0  0  0
M  END
>  <CHROM.0>
-59.88758699,-61.88410641

>  <CHROM.1>
44.75019207,-72.31191813,-104.17768503,-4.95974309,26.46813862,4.71648216
-1.87852390,-0.26475443,0.22276088

>  <Name>
32b193ba-a25e-435b-8b5e-a3340f91557d

>  <RI>
2.26153e+07

>  <Rbt.Current_Directory>
/data/work/jku/5V6S/work/40/8dba899c20c42488f2b1a17844994e

>  <Rbt.Executable>
rbdock ($Id: //depot/dev/client3/rdock/2013.1/src/exe/rbdock.cxx#4 $)

>  <Rbt.Library>
libRbt.so (2013.1, Build901 2013/11/27)

>  <Rbt.Parameter_File>
/rDock_2013.1_src/data/scripts/dock.prm

>  <Rbt.Receptor>
docking.prm

>  <SCORE>
-13.4111

>  <SCORE.INTER>
-14.5255

>  <SCORE.INTER.CONST>
1

>  <SCORE.INTER.POLAR>
-0.681131

>  <SCORE.INTER.REPUL>
0

>  <SCORE.INTER.ROT>
2

>  <SCORE.INTER.VDW>
-19.6097

>  <SCORE.INTER.norm>
-0.907845

>  <SCORE.INTRA>
0.0772749

>  <SCORE.INTRA.DIHEDRAL>
-0.226125

>  <SCORE.INTRA.DIHEDRAL.0>
3.21359

>  <SCORE.INTRA.POLAR>
0

>  <SCORE.INTRA.POLAR.0>
0

>  <SCORE.INTRA.REPUL>
0

>  <SCORE.INTRA.REPUL.0>
0

>  <SCORE.INTRA.VDW>
0.190337

>  <SCORE.INTRA.VDW.0>
-1.02092

>  <SCORE.INTRA.norm>
0.00482968

>  <SCORE.RESTR>
0.0149032

>  <SCORE.RESTR.CAVITY>
0.0149032

>  <SCORE.RESTR.norm>
0.00093145

>  <SCORE.SYSTEM>
1.02219

>  <SCORE.SYSTEM.CONST>
0

>  <SCORE.SYSTEM.DIHEDRAL>
0.0251349

>  <SCORE.SYSTEM.REPUL>
0.135784

>  <SCORE.SYSTEM.VDW>
0.330704

>  <SCORE.SYSTEM.norm>
0.0638869

>  <SCORE.heavy>
16

>  <SCORE.norm>
-0.838197

>  <enum_code>
M

>  <enum_smi>
Cc1sc2nc(SC(C)C)[nH+]c([NH3+])c2c1C

>  <sha256>
f184dd6951dd47e0055fc30c5b0e95ad9abd5d41652c716f1f97c53591a4cb37

>  <std_smi>
Cc1sc2nc(SC(C)C)nc(N)c2c1C

>  <uuid>
32b193ba-a25e-435b-8b5e-a3340f91557d

$$$$
32b193ba-a25e-435b-8b5e-a3340f91557d
  rDOCK(R)          3D
libRbt.so/2013.1/901 2013/11/27
 20 21  0  0  0  0  0  0  0  0999 V2000
   -0.7258   31.8250    0.3893 C   0  0  0  0  0  0
   -1.0256   31.0669    1.6510 C   0  0  0  0  0  0
   -0.7717   29.3825    1.6730 S   0  0  0  0  0  0
   -1.2827   29.2576    3.2777 C   0  0  0  0  0  0
   -1.2956   28.0617    3.8789 N   0  0  0  0  0  0
   -1.7215   28.1016    5.1309 C   0  0  0  0  0  0
   -1.8119   26.6423    6.1180 S   0  0  0  0  0  0
   -2.9127   25.5535    5.1142 C   0  0  0  0  0  0
   -4.3554   26.0464    5.1853 C   0  0  0  0  0  0
   -2.8067   24.1328    5.6647 C   0  0  0  0  0  0
   -2.0977   29.2166    5.7539 N   0  3  0  0  0  0
   -2.0940   30.4212    5.1872 C   0  0  0  0  0  0
   -2.4985   31.6437    5.8510 N   0  3  0  0  0  0
   -1.6586   30.4699    3.8452 C   0  0  0  0  0  0
   -1.5023   31.5494    2.8660 C   0  0  0  0  0  0
   -1.8030   33.0042    3.0921 C   0  0  0  0  0  0
   -2.3877   29.0504    6.7149 H   0  0  0  0  0  0
   -1.8540   32.4133    5.6070 H   0  0  0  0  0  0
   -2.5294   31.5919    6.8769 H   0  0  0  0  0  0
   -3.4393   31.9291    5.5340 H   0  0  0  0  0  0
  1  2  1  0  0  0
  2  3  1  0  0  0
  3  4  1  0  0  0
  4  5  2  0  0  0
  5  6  1  0  0  0
  6  7  1  0  0  0
  7  8  1  0  0  0
  8  9  1  0  0  0
  8 10  1  0  0  0
  6 11  2  0  0  0
 11 12  1  0  0  0
 12 13  1  0  0  0
 12 14  2  0  0  0
 14 15  1  0  0  0
 15 16  1  0  0  0
 15  2  2  0  0  0
 14  4  1  0  0  0
 11 17  1  0  0  0
 13 18  1  0  0  0
 13 19  1  0  0  0
 13 20  1  0  0  0
M  END
>  <CHROM.0>
-59.88758699,68.97338622

>  <CHROM.1>
-57.15506189,-73.03348495,138.65386038,-1.84336014,28.98180200,4.06183574
-0.86004914,-1.23136545,-3.00982782

>  <Name>
32b193ba-a25e-435b-8b5e-a3340f91557d

>  <RI>
2.26153e+07

>  <Rbt.Current_Directory>
/data/work/jku/5V6S/work/40/8dba899c20c42488f2b1a17844994e

>  <Rbt.Executable>
rbdock ($Id: //depot/dev/client3/rdock/2013.1/src/exe/rbdock.cxx#4 $)

>  <Rbt.Library>
libRbt.so (2013.1, Build901 2013/11/27)

>  <Rbt.Parameter_File>
/rDock_2013.1_src/data/scripts/dock.prm

>  <Rbt.Receptor>
docking.prm

>  <SCORE>
-16.5397

>  <SCORE.INTER>
-15.0717

>  <SCORE.INTER.CONST>
1

>  <SCORE.INTER.POLAR>
-0.200282

>  <SCORE.INTER.REPUL>
0

>  <SCORE.INTER.ROT>
2

>  <SCORE.INTER.VDW>
-21.7907

>  <SCORE.INTER.norm>
-0.941981

>  <SCORE.INTRA>
0.0450733

>  <SCORE.INTRA.DIHEDRAL>
-0.230789

>  <SCORE.INTRA.DIHEDRAL.0>
3.21359

>  <SCORE.INTRA.POLAR>
0

>  <SCORE.INTRA.POLAR.0>
0

>  <SCORE.INTRA.REPUL>
0

>  <SCORE.INTRA.REPUL.0>
0

>  <SCORE.INTRA.VDW>
0.160468

>  <SCORE.INTRA.VDW.0>
-1.02092

>  <SCORE.INTRA.norm>
0.00281708

>  <SCORE.RESTR>
0.000555664

>  <SCORE.RESTR.CAVITY>
0.000555664

>  <SCORE.RESTR.norm>
3.4729e-05

>  <SCORE.SYSTEM>
-1.51365

>  <SCORE.SYSTEM.CONST>
0

>  <SCORE.SYSTEM.DIHEDRAL>
0.397733

>  <SCORE.SYSTEM.POLAR>
-0.502969

>  <SCORE.SYSTEM.VDW>
-0.00242047

>  <SCORE.SYSTEM.norm>
-0.0946031

>  <SCORE.heavy>
16

>  <SCORE.norm>
-1.03373

>  <enum_code>
M

>  <enum_smi>
Cc1sc2nc(SC(C)C)[nH+]c([NH3+])c2c1C

>  <sha256>
f184dd6951dd47e0055fc30c5b0e95ad9abd5d41652c716f1f97c53591a4cb37

>  <std_smi>
Cc1sc2nc(SC(C)C)nc(N)c2c1C

>  <uuid>
32b193ba-a25e-435b-8b5e-a3340f91557d

$$$$
1289cb30-4d7e-4cdb-9283-2a9c951af593
  rDOCK(R)          3D
libRbt.so/2013.1/901 2013/11/27
 20 21  0  0  0  0  0  0  0  0999 V2000
   -2.7430   28.1537    4.7313 C   0  0  0  0  0  0
   -2.2971   29.2600    3.8175 C   0  0  0  0  0  0
   -1.5435   28.8577    2.3369 S   0  0  0  0  0  0
   -1.3647   30.4795    1.9223 C   0  0  0  0  0  0
   -0.7901   30.8672    0.7629 N   0  3  0  0  0  0
   -0.7035   32.1692    0.5307 C   0  0  0  0  0  0
    0.1197   32.6440   -0.9517 S   0  0  0  0  0  0
    1.8931   32.7563   -0.4562 C   0  0  0  0  0  0
    2.5271   31.3860   -0.2383 C   0  0  0  0  0  0
    2.7036   33.6195   -1.4172 C   0  0  0  0  0  0
   -1.1403   33.1164    1.3964 N   0  0  0  0  0  0
   -1.7016   32.7246    2.5459 C   0  0  0  0  0  0
   -2.1272   33.7656    3.4247 N   0  3  0  0  0  0
   -1.8521   31.3676    2.8746 C   0  0  0  0  0  0
   -2.4057   30.6359    4.0036 C   0  0  0  0  0  0
   -3.0233   31.2581    5.2237 C   0  0  0  0  0  0
   -0.4241   30.1949    0.0899 H   0  0  0  0  0  0
   -3.1493   33.7971    3.5137 H   0  0  0  0  0  0
   -1.7686   34.6839    3.1395 H   0  0  0  0  0  0
   -1.7452   33.5596    4.3584 H   0  0  0  0  0  0
  1  2  1  0  0  0
  2  3  1  0  0  0
  3  4  1  0  0  0
  4  5  2  0  0  0
  5  6  1  0  0  0
  6  7  1  0  0  0
  7  8  1  0  0  0
  8  9  1  0  0  0
  8 10  1  0  0  0
  6 11  2  0  0  0
 11 12  1  0  0  0
 12 13  1  0  0  0
 12 14  2  0  0  0
 14 15  1  0  0  0
 15 16  1  0  0  0
 15  2  2  0  0  0
 14  4  1  0  0  0
  5 17  1  0  0  0
 13 18  1  0  0  0
 13 19  1  0  0  0
 13 20  1  0  0  0
M  END
>  <CHROM.0>
-59.88758699,69.34310990

>  <CHROM.1>
-87.98053255,73.14157712,112.51850535,-0.84981209,31.37446379,1.72736895
-2.63912842,0.86510520,-0.07932261

>  <Name>
1289cb30-4d7e-4cdb-9283-2a9c951af593

>  <RI>
3.01233e+07

>  <Rbt.Current_Directory>
/data/work/jku/5V6S/work/40/8dba899c20c42488f2b1a17844994e

>  <Rbt.Executable>
rbdock ($Id: //depot/dev/client3/rdock/2013.1/src/exe/rbdock.cxx#4 $)

>  <Rbt.Library>
libRbt.so (2013.1, Build901 2013/11/27)

>  <Rbt.Parameter_File>
/rDock_2013.1_src/data/scripts/dock.prm

>  <Rbt.Receptor>
docking.prm

>  <SCORE>
-16.0541

>  <SCORE.INTER>
-14.5074

>  <SCORE.INTER.CONST>
1

>  <SCORE.INTER.POLAR>
-2.94674

>  <SCORE.INTER.REPUL>
0

>  <SCORE.INTER.ROT>
2

>  <SCORE.INTER.VDW>
-11.8885

>  <SCORE.INTER.norm>
-0.906711

>  <SCORE.INTRA>
-0.0417338

>  <SCORE.INTRA.DIHEDRAL>
0.0143426

>  <SCORE.INTRA.DIHEDRAL.0>
2.82958

>  <SCORE.INTRA.POLAR>
0

>  <SCORE.INTRA.POLAR.0>
0

>  <SCORE.INTRA.REPUL>
0

>  <SCORE.INTRA.REPUL.0>
0

>  <SCORE.INTRA.VDW>
-0.0489051

>  <SCORE.INTRA.VDW.0>
-1.20776

>  <SCORE.INTRA.norm>
-0.00260836

>  <SCORE.RESTR>
0.00779899

>  <SCORE.RESTR.CAVITY>
0.00779899

>  <SCORE.RESTR.norm>
0.000487437

>  <SCORE.SYSTEM>
-1.51278

>  <SCORE.SYSTEM.CONST>
0

>  <SCORE.SYSTEM.DIHEDRAL>
0.429886

>  <SCORE.SYSTEM.POLAR>
-0.503148

>  <SCORE.SYSTEM.VDW>
-0.0170237

>  <SCORE.SYSTEM.norm>
-0.094549

>  <SCORE.heavy>
16

>  <SCORE.norm>
-1.00338

>  <enum_code>
M

>  <enum_smi>
Cc1sc2[nH+]c(SC(C)C)nc([NH3+])c2c1C

>  <sha256>
f184dd6951dd47e0055fc30c5b0e95ad9abd5d41652c716f1f97c53591a4cb37

>  <std_smi>
Cc1sc2nc(SC(C)C)nc(N)c2c1C

>  <uuid>
1289cb30-4d7e-4cdb-9283-2a9c951af593

$$$$
1289cb30-4d7e-4cdb-9283-2a9c951af593
  rDOCK(R)          3D
libRbt.so/2013.1/901 2013/11/27
 20 21  0  0  0  0  0  0  0  0999 V2000
   -0.0611   32.4015    0.4443 C   0  0  0  0  0  0
   -0.6071   31.5247    1.5355 C   0  0  0  0  0  0
   -0.8221   29.8570    1.2278 S   0  0  0  0  0  0
   -1.4044   29.5872    2.7841 C   0  0  0  0  0  0
   -1.7821   28.3620    3.2094 N   0  3  0  0  0  0
   -2.2210   28.2574    4.4555 C   0  0  0  0  0  0
   -2.7786   26.6636    4.9550 S   0  0  0  0  0  0
   -1.3199   25.5731    4.6620 C   0  0  0  0  0  0
   -0.2249   25.7681    5.7061 C   0  0  0  0  0  0
   -1.7192   24.1088    4.5130 C   0  0  0  0  0  0
   -2.3254   29.3087    5.3050 N   0  0  0  0  0  0
   -1.9562   30.5203    4.8741 C   0  0  0  0  0  0
   -2.1037   31.5911    5.8063 N   0  3  0  0  0  0
   -1.4639   30.7289    3.5755 C   0  0  0  0  0  0
   -0.9889   31.8819    2.8263 C   0  0  0  0  0  0
   -0.9073   33.2867    3.3527 C   0  0  0  0  0  0
   -1.7457   27.5443    2.6020 H   0  0  0  0  0  0
   -2.7978   31.3747    6.5307 H   0  0  0  0  0  0
   -2.3389   32.4769    5.3444 H   0  0  0  0  0  0
   -1.1978   31.7185    6.2789 H   0  0  0  0  0  0
  1  2  1  0  0  0
  2  3  1  0  0  0
  3  4  1  0  0  0
  4  5  2  0  0  0
  5  6  1  0  0  0
  6  7  1  0  0  0
  7  8  1  0  0  0
  8  9  1  0  0  0
  8 10  1  0  0  0
  6 11  2  0  0  0
 11 12  1  0  0  0
 12 13  1  0  0  0
 12 14  2  0  0  0
 14 15  1  0  0  0
 15 16  1  0  0  0
 15  2  2  0  0  0
 14  4  1  0  0  0
  5 17  1  0  0  0
 13 18  1  0  0  0
 13 19  1  0  0  0
 13 20  1  0  0  0
M  END
>  <CHROM.0>
-59.88758699,68.02595548

>  <CHROM.1>
57.25817547,74.42988778,-22.60862220,-1.46966390,29.16589890,3.64916065,-1.12818225
-1.22609756,3.13670337

>  <Name>
1289cb30-4d7e-4cdb-9283-2a9c951af593

>  <RI>
3.01233e+07

>  <Rbt.Current_Directory>
/data/work/jku/5V6S/work/40/8dba899c20c42488f2b1a17844994e

>  <Rbt.Executable>
rbdock ($Id: //depot/dev/client3/rdock/2013.1/src/exe/rbdock.cxx#4 $)

>  <Rbt.Library>
libRbt.so (2013.1, Build901 2013/11/27)

>  <Rbt.Parameter_File>
/rDock_2013.1_src/data/scripts/dock.prm

>  <Rbt.Receptor>
docking.prm

>  <SCORE>
-17.8676

>  <SCORE.INTER>
-16.823

>  <SCORE.INTER.CONST>
1

>  <SCORE.INTER.POLAR>
-0.751867

>  <SCORE.INTER.REPUL>
0

>  <SCORE.INTER.ROT>
2

>  <SCORE.INTER.VDW>
-21.6667

>  <SCORE.INTER.norm>
-1.05144

>  <SCORE.INTRA>
0.46535

>  <SCORE.INTRA.DIHEDRAL>
0.206068

>  <SCORE.INTRA.DIHEDRAL.0>
2.82958

>  <SCORE.INTRA.POLAR>
0

>  <SCORE.INTRA.POLAR.0>
0

>  <SCORE.INTRA.REPUL>
0

>  <SCORE.INTRA.REPUL.0>
0

>  <SCORE.INTRA.VDW>
0.362315

>  <SCORE.INTRA.VDW.0>
-1.20776

>  <SCORE.INTRA.norm>
0.0290844

>  <SCORE.RESTR>
0

>  <SCORE.RESTR.CAVITY>
0

>  <SCORE.RESTR.norm>
0

>  <SCORE.SYSTEM>
-1.50995

>  <SCORE.SYSTEM.CONST>
0

>  <SCORE.SYSTEM.DIHEDRAL>
0.320861

>  <SCORE.SYSTEM.POLAR>
-0.502004

>  <SCORE.SYSTEM.VDW>
0.0364374

>  <SCORE.SYSTEM.norm>
-0.0943716

>  <SCORE.heavy>
16

>  <SCORE.norm>
-1.11673

>  <enum_code>
M

>  <enum_smi>
Cc1sc2[nH+]c(SC(C)C)nc([NH3+])c2c1C

>  <sha256>
f184dd6951dd47e0055fc30c5b0e95ad9abd5d41652c716f1f97c53591a4cb37

>  <std_smi>
Cc1sc2nc(SC(C)C)nc(N)c2c1C

>  <uuid>
1289cb30-4d7e-4cdb-9283-2a9c951af593

$$$$
1289cb30-4d7e-4cdb-9283-2a9c951af593
  rDOCK(R)          3D
libRbt.so/2013.1/901 2013/11/27
 20 21  0  0  0  0  0  0  0  0999 V2000
   -2.7465   27.8014    4.7856 C   0  0  0  0  0  0
   -2.2202   28.9346    3.9510 C   0  0  0  0  0  0
   -1.8287   28.6437    2.3127 S   0  0  0  0  0  0
   -1.3619   30.2446    2.0813 C   0  0  0  0  0  0
   -0.9129   30.6990    0.8911 N   0  3  0  0  0  0
   -0.5764   31.9785    0.8144 C   0  0  0  0  0  0
    0.0780   32.5219   -0.7274 S   0  0  0  0  0  0
    1.8840   32.7072   -0.4005 C   0  0  0  0  0  0
    2.5934   31.3641   -0.2592 C   0  0  0  0  0  0
    2.5622   33.6118   -1.4240 C   0  0  0  0  0  0
   -0.6423   32.8358    1.8624 N   0  0  0  0  0  0
   -1.0810   32.3766    3.0399 C   0  0  0  0  0  0
   -1.1131   33.3201    4.1104 N   0  3  0  0  0  0
   -1.4754   31.0403    3.2159 C   0  0  0  0  0  0
   -1.9861   30.2545    4.3286 C   0  0  0  0  0  0
   -2.2405   30.7743    5.7151 C   0  0  0  0  0  0
   -0.8220   30.0892    0.0795 H   0  0  0  0  0  0
   -0.3211   33.1980    4.7517 H   0  0  0  0  0  0
   -1.9975   33.2861    4.6301 H   0  0  0  0  0  0
   -1.0311   34.2602    3.6985 H   0  0  0  0  0  0
  1  2  1  0  0  0
  2  3  1  0  0  0
  3  4  1  0  0  0
  4  5  2  0  0  0
  5  6  1  0  0  0
  6  7  1  0  0  0
  7  8  1  0  0  0
  8  9  1  0  0  0
  8 10  1  0  0  0
  6 11  2  0  0  0
 11 12  1  0  0  0
 12 13  1  0  0  0
 12 14  2  0  0  0
 14 15  1  0  0  0
 15 16  1  0  0  0
 15  2  2  0  0  0
 14  4  1  0  0  0
  5 17  1  0  0  0
 13 18  1  0  0  0
 13 19  1  0  0  0
 13 20  1  0  0  0
M  END
>  <CHROM.0>
-59.88758699,-179.37761591

>  <CHROM.1>
-105.26378399,72.35305824,-102.02163997,-0.68580780,31.13922240,1.94580509
-3.06510679,1.01420885,0.50515438

>  <Name>
1289cb30-4d7e-4cdb-9283-2a9c951af593

>  <RI>
3.01233e+07

>  <Rbt.Current_Directory>
/data/work/jku/5V6S/work/40/8dba899c20c42488f2b1a17844994e

>  <Rbt.Executable>
rbdock ($Id: //depot/dev/client3/rdock/2013.1/src/exe/rbdock.cxx#4 $)

>  <Rbt.Library>
libRbt.so (2013.1, Build901 2013/11/27)

>  <Rbt.Parameter_File>
/rDock_2013.1_src/data/scripts/dock.prm

>  <Rbt.Receptor>
docking.prm

>  <SCORE>
-16.1942

>  <SCORE.INTER>
-15.9814

>  <SCORE.INTER.CONST>
1

>  <SCORE.INTER.POLAR>
-2.37697

>  <SCORE.INTER.REPUL>
0

>  <SCORE.INTER.ROT>
2

>  <SCORE.INTER.VDW>
-15.2997

>  <SCORE.INTER.norm>
-0.998836

>  <SCORE.INTRA>
0.0578605

>  <SCORE.INTRA.DIHEDRAL>
0.0702258

>  <SCORE.INTRA.DIHEDRAL.0>
2.82958

>  <SCORE.INTRA.POLAR>
0

>  <SCORE.INTRA.POLAR.0>
0

>  <SCORE.INTRA.REPUL>
0

>  <SCORE.INTRA.REPUL.0>
0

>  <SCORE.INTRA.VDW>
0.0227476

>  <SCORE.INTRA.VDW.0>
-1.20776

>  <SCORE.INTRA.norm>
0.00361628

>  <SCORE.RESTR>
0

>  <SCORE.RESTR.CAVITY>
0

>  <SCORE.RESTR.norm>
0

>  <SCORE.SYSTEM>
-0.270688

>  <SCORE.SYSTEM.CONST>
0

>  <SCORE.SYSTEM.DIHEDRAL>
0.00954267

>  <SCORE.SYSTEM.VDW>
-0.27546

>  <SCORE.SYSTEM.norm>
-0.016918

>  <SCORE.heavy>
16

>  <SCORE.norm>
-1.01214

>  <enum_code>
M

>  <enum_smi>
Cc1sc2[nH+]c(SC(C)C)nc([NH3+])c2c1C

>  <sha256>
f184dd6951dd47e0055fc30c5b0e95ad9abd5d41652c716f1f97c53591a4cb37

>  <std_smi>
Cc1sc2nc(SC(C)C)nc(N)c2c1C

>  <uuid>
1289cb30-4d7e-4cdb-9283-2a9c951af593

$$$$
1289cb30-4d7e-4cdb-9283-2a9c951af593
  rDOCK(R)          3D
libRbt.so/2013.1/901 2013/11/27
 20 21  0  0  0  0  0  0  0  0999 V2000
   -2.5878   27.8118    4.8125 C   0  0  0  0  0  0
   -2.1062   28.9544    3.9638 C   0  0  0  0  0  0
   -1.6645   28.6510    2.3406 S   0  0  0  0  0  0
   -1.2807   30.2698    2.0832 C   0  0  0  0  0  0
   -0.8318   30.7230    0.8925 N   0  3  0  0  0  0
   -0.5638   32.0172    0.7942 C   0  0  0  0  0  0
    0.0928   32.5630   -0.7457 S   0  0  0  0  0  0
    1.9030   32.7161   -0.4251 C   0  0  0  0  0  0
    2.5871   31.3607   -0.2769 C   0  0  0  0  0  0
    2.5953   33.6008   -1.4565 C   0  0  0  0  0  0
   -0.6987   32.8914    1.8214 N   0  0  0  0  0  0
   -1.1369   32.4337    2.9997 C   0  0  0  0  0  0
   -1.2431   33.3963    4.0481 N   0  3  0  0  0  0
   -1.4616   31.0818    3.1973 C   0  0  0  0  0  0
   -1.9525   30.2928    4.3166 C   0  0  0  0  0  0
   -2.2643   30.8270    5.6858 C   0  0  0  0  0  0
   -0.6905   30.1022    0.0966 H   0  0  0  0  0  0
   -0.4501   33.3437    4.6976 H   0  0  0  0  0  0
   -2.1275   33.3129    4.5622 H   0  0  0  0  0  0
   -1.2226   34.3305    3.6155 H   0  0  0  0  0  0
  1  2  1  0  0  0
  2  3  1  0  0  0
  3  4  1  0  0  0
  4  5  2  0  0  0
  5  6  1  0  0  0
  6  7  1  0  0  0
  7  8  1  0  0  0
  8  9  1  0  0  0
  8 10  1  0  0  0
  6 11  2  0  0  0
 11 12  1  0  0  0
 12 13  1  0  0  0
 12 14  2  0  0  0
 14 15  1  0  0  0
 15 16  1  0  0  0
 15  2  2  0  0  0
 14  4  1  0  0  0
  5 17  1  0  0  0
 13 18  1  0  0  0
 13 19  1  0  0  0
 13 20  1  0  0  0
M  END
>  <CHROM.0>
-59.88758699,-179.61176149

>  <CHROM.1>
-100.61429241,71.46473590,-100.90858187,-0.65050445,31.16852400,1.93273263
-2.94381305,1.01471403,0.35462093

>  <Name>
1289cb30-4d7e-4cdb-9283-2a9c951af593

>  <RI>
3.01233e+07

>  <Rbt.Current_Directory>
/data/work/jku/5V6S/work/40/8dba899c20c42488f2b1a17844994e

>  <Rbt.Executable>
rbdock ($Id: //depot/dev/client3/rdock/2013.1/src/exe/rbdock.cxx#4 $)

>  <Rbt.Library>
libRbt.so (2013.1, Build901 2013/11/27)

>  <Rbt.Parameter_File>
/rDock_2013.1_src/data/scripts/dock.prm

>  <Rbt.Receptor>
docking.prm

>  <SCORE>
-16.1798

>  <SCORE.INTER>
-15.912

>  <SCORE.INTER.CONST>
1

>  <SCORE.INTER.POLAR>
-2.39581

>  <SCORE.INTER.REPUL>
0

>  <SCORE.INTER.ROT>
2

>  <SCORE.INTER.VDW>
-15.1663

>  <SCORE.INTER.norm>
-0.994502

>  <SCORE.INTRA>
0.00351174

>  <SCORE.INTRA.DIHEDRAL>
0.00725704

>  <SCORE.INTRA.DIHEDRAL.0>
2.82958

>  <SCORE.INTRA.POLAR>
0

>  <SCORE.INTRA.POLAR.0>
0

>  <SCORE.INTRA.REPUL>
0

>  <SCORE.INTRA.REPUL.0>
0

>  <SCORE.INTRA.VDW>
-0.000116781

>  <SCORE.INTRA.VDW.0>
-1.20776

>  <SCORE.INTRA.norm>
0.000219484

>  <SCORE.RESTR>
0

>  <SCORE.RESTR.CAVITY>
0

>  <SCORE.RESTR.norm>
0

>  <SCORE.SYSTEM>
-0.271322

>  <SCORE.SYSTEM.CONST>
0

>  <SCORE.SYSTEM.DIHEDRAL>
0.00837508

>  <SCORE.SYSTEM.VDW>
-0.27551

>  <SCORE.SYSTEM.norm>
-0.0169576

>  <SCORE.heavy>
16

>  <SCORE.norm>
-1.01124

>  <enum_code>
M

>  <enum_smi>
Cc1sc2[nH+]c(SC(C)C)nc([NH3+])c2c1C

>  <sha256>
f184dd6951dd47e0055fc30c5b0e95ad9abd5d41652c716f1f97c53591a4cb37

>  <std_smi>
Cc1sc2nc(SC(C)C)nc(N)c2c1C

>  <uuid>
1289cb30-4d7e-4cdb-9283-2a9c951af593

$$$$
1289cb30-4d7e-4cdb-9283-2a9c951af593
  rDOCK(R)          3D
libRbt.so/2013.1/901 2013/11/27
 20 21  0  0  0  0  0  0  0  0999 V2000
   -2.1861   28.0589    4.7948 C   0  0  0  0  0  0
   -1.7755   29.1947    3.9009 C   0  0  0  0  0  0
   -1.4126   28.8692    2.2625 S   0  0  0  0  0  0
   -1.0793   30.4906    1.9555 C   0  0  0  0  0  0
   -0.7036   30.9299    0.7347 N   0  3  0  0  0  0
   -0.4704   32.2274    0.5986 C   0  0  0  0  0  0
    0.0923   32.7571   -0.9836 S   0  0  0  0  0  0
    1.8957   32.3693   -0.9642 C   0  0  0  0  0  0
    2.7608   33.5985   -1.2247 C   0  0  0  0  0  0
    2.3101   31.6320    0.3049 C   0  0  0  0  0  0
   -0.5709   33.1185    1.6152 N   0  0  0  0  0  0
   -0.9364   32.6746    2.8232 C   0  0  0  0  0  0
   -1.0093   33.6550    3.8578 N   0  3  0  0  0  0
   -1.2199   31.3201    3.0625 C   0  0  0  0  0  0
   -1.6336   30.5427    4.2205 C   0  0  0  0  0  0
   -1.8853   31.0968    5.5941 C   0  0  0  0  0  0
   -0.5902   30.2969   -0.0560 H   0  0  0  0  0  0
   -0.1925   33.6179    4.4783 H   0  0  0  0  0  0
   -1.8735   33.5762    4.4058 H   0  0  0  0  0  0
   -1.0102   34.5815    3.4085 H   0  0  0  0  0  0
  1  2  1  0  0  0
  2  3  1  0  0  0
  3  4  1  0  0  0
  4  5  2  0  0  0
  5  6  1  0  0  0
  6  7  1  0  0  0
  7  8  1  0  0  0
  8  9  1  0  0  0
  8 10  1  0  0  0
  6 11  2  0  0  0
 11 12  1  0  0  0
 12 13  1  0  0  0
 12 14  2  0  0  0
 14 15  1  0  0  0
 15 16  1  0  0  0
 15  2  2  0  0  0
 14  4  1  0  0  0
  5 17  1  0  0  0
 13 18  1  0  0  0
 13 19  1  0  0  0
 13 20  1  0  0  0
M  END
>  <CHROM.0>
-59.88758699,69.09532772

>  <CHROM.1>
-80.67600526,-122.75833991,-102.21165226,-0.48459965,31.35660151,1.83640579
-2.96879628,1.06611302,0.37530220

>  <Name>
1289cb30-4d7e-4cdb-9283-2a9c951af593

>  <RI>
3.01233e+07

>  <Rbt.Current_Directory>
/data/work/jku/5V6S/work/40/8dba899c20c42488f2b1a17844994e

>  <Rbt.Executable>
rbdock ($Id: //depot/dev/client3/rdock/2013.1/src/exe/rbdock.cxx#4 $)

>  <Rbt.Library>
libRbt.so (2013.1, Build901 2013/11/27)

>  <Rbt.Parameter_File>
/rDock_2013.1_src/data/scripts/dock.prm

>  <Rbt.Receptor>
docking.prm

>  <SCORE>
-10.0777

>  <SCORE.INTER>
-10.8251

>  <SCORE.INTER.CONST>
1

>  <SCORE.INTER.POLAR>
-2.56021

>  <SCORE.INTER.REPUL>
0

>  <SCORE.INTER.ROT>
2

>  <SCORE.INTER.VDW>
-9.52033

>  <SCORE.INTER.norm>
-0.676566

>  <SCORE.INTRA>
2.26086

>  <SCORE.INTRA.DIHEDRAL>
2.04754

>  <SCORE.INTRA.DIHEDRAL.0>
2.82958

>  <SCORE.INTRA.POLAR>
0

>  <SCORE.INTRA.POLAR.0>
0

>  <SCORE.INTRA.REPUL>
0

>  <SCORE.INTRA.REPUL.0>
0

>  <SCORE.INTRA.VDW>
1.23709

>  <SCORE.INTRA.VDW.0>
-1.20776

>  <SCORE.INTRA.norm>
0.141304

>  <SCORE.RESTR>
0

>  <SCORE.RESTR.CAVITY>
0

>  <SCORE.RESTR.norm>
0

>  <SCORE.SYSTEM>
-1.51351

>  <SCORE.SYSTEM.CONST>
0

>  <SCORE.SYSTEM.DIHEDRAL>
0.408205

>  <SCORE.SYSTEM.POLAR>
-0.50304

>  <SCORE.SYSTEM.VDW>
-0.00727117

>  <SCORE.SYSTEM.norm>
-0.0945941

>  <SCORE.heavy>
16

>  <SCORE.norm>
-0.629856

>  <enum_code>
M

>  <enum_smi>
Cc1sc2[nH+]c(SC(C)C)nc([NH3+])c2c1C

>  <sha256>
f184dd6951dd47e0055fc30c5b0e95ad9abd5d41652c716f1f97c53591a4cb37

>  <std_smi>
Cc1sc2nc(SC(C)C)nc(N)c2c1C

>  <uuid>
1289cb30-4d7e-4cdb-9283-2a9c951af593

$$$$
5aa9a8d3-4cce-4a9d-a2da-785484f7a19d
  rDOCK(R)          3D
libRbt.so/2013.1/901 2013/11/27
 19 20  0  0  0  0  0  0  0  0999 V2000
   -1.5549   33.4351    2.6342 C   0  0  0  0  0  0
   -1.4539   31.9482    2.7921 C   0  0  0  0  0  0
   -1.8281   31.2507    4.3077 S   0  0  0  0  0  0
   -1.5095   29.6865    3.7443 C   0  0  0  0  0  0
   -1.6416   28.6273    4.5539 N   0  0  0  0  0  0
   -1.3682   27.4580    3.9842 C   0  0  0  0  0  0
   -1.4776   25.9693    4.9416 S   0  0  0  0  0  0
   -3.1428   25.3426    4.4837 C   0  0  0  0  0  0
   -3.3209   23.9008    4.9524 C   0  0  0  0  0  0
   -4.1872   26.2460    5.1376 C   0  0  0  0  0  0
   -0.9777   27.2898    2.7099 N   0  0  0  0  0  0
   -0.8603   28.3726    1.9571 C   0  0  0  0  0  0
   -0.4403   28.1250    0.6186 N   0  3  0  0  0  0
   -1.1200   29.6601    2.4163 C   0  0  0  0  0  0
   -1.0834   30.9963    1.8480 C   0  0  0  0  0  0
   -0.7032   31.3277    0.4374 C   0  0  0  0  0  0
   -0.9217   27.3105    0.2324 H   0  0  0  0  0  0
   -0.5630   28.9600    0.0422 H   0  0  0  0  0  0
    0.5634   27.9158    0.6882 H   0  0  0  0  0  0
  1  2  1  0  0  0
  2  3  1  0  0  0
  3  4  1  0  0  0
  4  5  2  0  0  0
  5  6  1  0  0  0
  6  7  1  0  0  0
  7  8  1  0  0  0
  8  9  1  0  0  0
  8 10  1  0  0  0
  6 11  2  0  0  0
 11 12  1  0  0  0
 12 13  1  0  0  0
 12 14  2  0  0  0
 14 15  1  0  0  0
 15 16  1  0  0  0
 15  2  2  0  0  0
 14  4  1  0  0  0
 13 17  1  0  0  0
 13 18  1  0  0  0
 13 19  1  0  0  0
M  END
>  <CHROM.0>
-59.88758699,-178.38398544

>  <CHROM.1>
97.96816354,167.15172862,42.41042737,-1.67592973,28.67065811,3.40131680,1.10852661
1.09656119,0.04694113

>  <Name>
5aa9a8d3-4cce-4a9d-a2da-785484f7a19d

>  <RI>
2.1321e+07

>  <Rbt.Current_Directory>
/data/work/jku/5V6S/work/40/8dba899c20c42488f2b1a17844994e

>  <Rbt.Executable>
rbdock ($Id: //depot/dev/client3/rdock/2013.1/src/exe/rbdock.cxx#4 $)

>  <Rbt.Library>
libRbt.so (2013.1, Build901 2013/11/27)

>  <Rbt.Parameter_File>
/rDock_2013.1_src/data/scripts/dock.prm

>  <Rbt.Receptor>
docking.prm

>  <SCORE>
-15.4367

>  <SCORE.INTER>
-16.5053

>  <SCORE.INTER.CONST>
1

>  <SCORE.INTER.POLAR>
-0.724106

>  <SCORE.INTER.REPUL>
0

>  <SCORE.INTER.ROT>
2

>  <SCORE.INTER.VDW>
-21.4433

>  <SCORE.INTER.norm>
-1.03158

>  <SCORE.INTRA>
1.33363

>  <SCORE.INTRA.DIHEDRAL>
0.00491625

>  <SCORE.INTRA.DIHEDRAL.0>
3.03769

>  <SCORE.INTRA.POLAR>
0

>  <SCORE.INTRA.POLAR.0>
0

>  <SCORE.INTRA.REPUL>
0

>  <SCORE.INTRA.REPUL.0>
0

>  <SCORE.INTRA.VDW>
1.33117

>  <SCORE.INTRA.VDW.0>
-1.09867

>  <SCORE.INTRA.norm>
0.0833517

>  <SCORE.RESTR>
0

>  <SCORE.RESTR.CAVITY>
0

>  <SCORE.RESTR.norm>
0

>  <SCORE.SYSTEM>
-0.265039

>  <SCORE.SYSTEM.CONST>
0

>  <SCORE.SYSTEM.DIHEDRAL>
0.0205109

>  <SCORE.SYSTEM.VDW>
-0.275295

>  <SCORE.SYSTEM.norm>
-0.016565

>  <SCORE.heavy>
16

>  <SCORE.norm>
-0.964793

>  <enum_code>
M

>  <enum_smi>
Cc1sc2nc(SC(C)C)nc([NH3+])c2c1C

>  <sha256>
f184dd6951dd47e0055fc30c5b0e95ad9abd5d41652c716f1f97c53591a4cb37

>  <std_smi>
Cc1sc2nc(SC(C)C)nc(N)c2c1C

>  <uuid>
5aa9a8d3-4cce-4a9d-a2da-785484f7a19d

$$$$
5aa9a8d3-4cce-4a9d-a2da-785484f7a19d
  rDOCK(R)          3D
libRbt.so/2013.1/901 2013/11/27
 19 20  0  0  0  0  0  0  0  0999 V2000
   -1.6871   33.4005    2.7084 C   0  0  0  0  0  0
   -1.5336   31.9186    2.8710 C   0  0  0  0  0  0
   -1.8805   31.2135    4.3896 S   0  0  0  0  0  0
   -1.5081   29.6596    3.8307 C   0  0  0  0  0  0
   -1.6014   28.5991    4.6440 N   0  0  0  0  0  0
   -1.2882   27.4382    4.0777 C   0  0  0  0  0  0
   -1.3434   25.9498    5.0402 S   0  0  0  0  0  0
   -2.9123   25.1836    4.4683 C   0  0  0  0  0  0
   -3.0127   23.7401    4.9546 C   0  0  0  0  0  0
   -4.0734   26.0108    5.0180 C   0  0  0  0  0  0
   -0.8942   27.2795    2.8032 N   0  0  0  0  0  0
   -0.8163   28.3633    2.0467 C   0  0  0  0  0  0
   -0.3902   28.1261    0.7082 N   0  3  0  0  0  0
   -1.1203   29.6424    2.5021 C   0  0  0  0  0  0
   -1.1316   30.9771    1.9293 C   0  0  0  0  0  0
   -0.7658   31.3170    0.5169 C   0  0  0  0  0  0
   -0.5675   28.9434    0.1211 H   0  0  0  0  0  0
    0.5900   27.8369    0.6881 H   0  0  0  0  0  0
   -0.9719   27.3464    0.3771 H   0  0  0  0  0  0
  1  2  1  0  0  0
  2  3  1  0  0  0
  3  4  1  0  0  0
  4  5  2  0  0  0
  5  6  1  0  0  0
  6  7  1  0  0  0
  7  8  1  0  0  0
  8  9  1  0  0  0
  8 10  1  0  0  0
  6 11  2  0  0  0
 11 12  1  0  0  0
 12 13  1  0  0  0
 12 14  2  0  0  0
 14 15  1  0  0  0
 15 16  1  0  0  0
 15  2  2  0  0  0
 14  4  1  0  0  0
 13 17  1  0  0  0
 13 18  1  0  0  0
 13 19  1  0  0  0
M  END
>  <CHROM.0>
-59.88758699,68.67391886

>  <CHROM.1>
103.11762538,167.95072223,166.11456816,-1.63107353,28.62122801,3.46566598
1.19067320,1.11369891,-0.00811575

>  <Name>
5aa9a8d3-4cce-4a9d-a2da-785484f7a19d

>  <RI>
2.1321e+07

>  <Rbt.Current_Directory>
/data/work/jku/5V6S/work/40/8dba899c20c42488f2b1a17844994e

>  <Rbt.Executable>
rbdock ($Id: //depot/dev/client3/rdock/2013.1/src/exe/rbdock.cxx#4 $)

>  <Rbt.Library>
libRbt.so (2013.1, Build901 2013/11/27)

>  <Rbt.Parameter_File>
/rDock_2013.1_src/data/scripts/dock.prm

>  <Rbt.Receptor>
docking.prm

>  <SCORE>
-16.9101

>  <SCORE.INTER>
-16.635

>  <SCORE.INTER.CONST>
1

>  <SCORE.INTER.POLAR>
-0.728596

>  <SCORE.INTER.REPUL>
0

>  <SCORE.INTER.ROT>
2

>  <SCORE.INTER.VDW>
-21.5578

>  <SCORE.INTER.norm>
-1.03969

>  <SCORE.INTRA>
1.23836

>  <SCORE.INTRA.DIHEDRAL>
-0.034283

>  <SCORE.INTRA.DIHEDRAL.0>
3.03769

>  <SCORE.INTRA.POLAR>
0

>  <SCORE.INTRA.POLAR.0>
0

>  <SCORE.INTRA.REPUL>
0

>  <SCORE.INTRA.REPUL.0>
0

>  <SCORE.INTRA.VDW>
1.2555

>  <SCORE.INTRA.VDW.0>
-1.09867

>  <SCORE.INTRA.norm>
0.0773976

>  <SCORE.RESTR>
0

>  <SCORE.RESTR.CAVITY>
0

>  <SCORE.RESTR.norm>
0

>  <SCORE.SYSTEM>
-1.51341

>  <SCORE.SYSTEM.CONST>
0

>  <SCORE.SYSTEM.DIHEDRAL>
0.372572

>  <SCORE.SYSTEM.POLAR>
-0.502743

>  <SCORE.SYSTEM.VDW>
0.00963655

>  <SCORE.SYSTEM.norm>
-0.0945878

>  <SCORE.heavy>
16

>  <SCORE.norm>
-1.05688

>  <enum_code>
M

>  <enum_smi>
Cc1sc2nc(SC(C)C)nc([NH3+])c2c1C

>  <sha256>
f184dd6951dd47e0055fc30c5b0e95ad9abd5d41652c716f1f97c53591a4cb37

>  <std_smi>
Cc1sc2nc(SC(C)C)nc(N)c2c1C

>  <uuid>
5aa9a8d3-4cce-4a9d-a2da-785484f7a19d

$$$$
5aa9a8d3-4cce-4a9d-a2da-785484f7a19d
  rDOCK(R)          3D
libRbt.so/2013.1/901 2013/11/27
 19 20  0  0  0  0  0  0  0  0999 V2000
   -2.3006   28.4811    5.4922 C   0  0  0  0  0  0
   -1.9646   29.5080    4.4537 C   0  0  0  0  0  0
   -1.1627   29.0099    3.0280 S   0  0  0  0  0  0
   -1.1359   30.5857    2.4100 C   0  0  0  0  0  0
   -0.5850   30.8434    1.2162 N   0  0  0  0  0  0
   -0.6375   32.1189    0.8464 C   0  0  0  0  0  0
    0.0735   32.6131   -0.7013 S   0  0  0  0  0  0
    1.8649   32.6691   -0.2976 C   0  0  0  0  0  0
    2.4554   31.2615   -0.2816 C   0  0  0  0  0  0
    2.5635   33.5257   -1.3525 C   0  0  0  0  0  0
   -1.1761   33.1138    1.5708 N   0  0  0  0  0  0
   -1.7026   32.8012    2.7447 C   0  0  0  0  0  0
   -2.2535   33.9015    3.4624 N   0  3  0  0  0  0
   -1.7258   31.5078    3.2571 C   0  0  0  0  0  0
   -2.2164   30.8759    4.4694 C   0  0  0  0  0  0
   -2.9057   31.5820    5.5965 C   0  0  0  0  0  0
   -2.1492   33.7659    4.4699 H   0  0  0  0  0  0
   -1.8435   34.7816    3.1430 H   0  0  0  0  0  0
   -3.2541   33.8986    3.2285 H   0  0  0  0  0  0
  1  2  1  0  0  0
  2  3  1  0  0  0
  3  4  1  0  0  0
  4  5  2  0  0  0
  5  6  1  0  0  0
  6  7  1  0  0  0
  7  8  1  0  0  0
  8  9  1  0  0  0
  8 10  1  0  0  0
  6 11  2  0  0  0
 11 12  1  0  0  0
 12 13  1  0  0  0
 12 14  2  0  0  0
 14 15  1  0  0  0
 15 16  1  0  0  0
 15  2  2  0  0  0
 14  4  1  0  0  0
 13 17  1  0  0  0
 13 18  1  0  0  0
 13 19  1  0  0  0
M  END
>  <CHROM.0>
-59.88758699,69.74432764

>  <CHROM.1>
-78.25469391,78.41120220,-147.52747834,-0.74567359,31.45910392,2.08227792
-2.48374323,0.85453356,-0.34168793

>  <Name>
5aa9a8d3-4cce-4a9d-a2da-785484f7a19d

>  <RI>
2.1321e+07

>  <Rbt.Current_Directory>
/data/work/jku/5V6S/work/40/8dba899c20c42488f2b1a17844994e

>  <Rbt.Executable>
rbdock ($Id: //depot/dev/client3/rdock/2013.1/src/exe/rbdock.cxx#4 $)

>  <Rbt.Library>
libRbt.so (2013.1, Build901 2013/11/27)

>  <Rbt.Parameter_File>
/rDock_2013.1_src/data/scripts/dock.prm

>  <Rbt.Receptor>
docking.prm

>  <SCORE>
-14.5816

>  <SCORE.INTER>
-13.4566

>  <SCORE.INTER.CONST>
1

>  <SCORE.INTER.POLAR>
-2.20311

>  <SCORE.INTER.REPUL>
0.0339746

>  <SCORE.INTER.ROT>
2

>  <SCORE.INTER.VDW>
-13.5359

>  <SCORE.INTER.norm>
-0.841036

>  <SCORE.INTRA>
0.385417

>  <SCORE.INTRA.DIHEDRAL>
0.143651

>  <SCORE.INTRA.DIHEDRAL.0>
3.03769

>  <SCORE.INTRA.POLAR>
0

>  <SCORE.INTRA.POLAR.0>
0

>  <SCORE.INTRA.REPUL>
0

>  <SCORE.INTRA.REPUL.0>
0

>  <SCORE.INTRA.VDW>
0.313592

>  <SCORE.INTRA.VDW.0>
-1.09867

>  <SCORE.INTRA.norm>
0.0240886

>  <SCORE.RESTR>
0

>  <SCORE.RESTR.CAVITY>
0

>  <SCORE.RESTR.norm>
0

>  <SCORE.SYSTEM>
-1.5104

>  <SCORE.SYSTEM.CONST>
0

>  <SCORE.SYSTEM.DIHEDRAL>
0.466123

>  <SCORE.SYSTEM.POLAR>
-0.503218

>  <SCORE.SYSTEM.VDW>
-0.0325225

>  <SCORE.SYSTEM.norm>
-0.0944002

>  <SCORE.heavy>
16

>  <SCORE.norm>
-0.911348

>  <enum_code>
M

>  <enum_smi>
Cc1sc2nc(SC(C)C)nc([NH3+])c2c1C

>  <sha256>
f184dd6951dd47e0055fc30c5b0e95ad9abd5d41652c716f1f97c53591a4cb37

>  <std_smi>
Cc1sc2nc(SC(C)C)nc(N)c2c1C

>  <uuid>
5aa9a8d3-4cce-4a9d-a2da-785484f7a19d

$$$$
5aa9a8d3-4cce-4a9d-a2da-785484f7a19d
  rDOCK(R)          3D
libRbt.so/2013.1/901 2013/11/27
 19 20  0  0  0  0  0  0  0  0999 V2000
   -1.3328   33.5226    2.6331 C   0  0  0  0  0  0
   -1.3423   32.0312    2.7801 C   0  0  0  0  0  0
   -1.8806   31.3493    4.2528 S   0  0  0  0  0  0
   -1.6214   29.7715    3.6969 C   0  0  0  0  0  0
   -1.8865   28.7176    4.4804 N   0  0  0  0  0  0
   -1.6461   27.5368    3.9196 C   0  0  0  0  0  0
   -1.9284   26.0518    4.8470 S   0  0  0  0  0  0
   -0.2172   25.5376    5.2742 C   0  0  0  0  0  0
   -0.2259   24.5803    6.4632 C   0  0  0  0  0  0
    0.3946   24.8579    4.0502 C   0  0  0  0  0  0
   -1.1674   27.3522    2.6780 N   0  0  0  0  0  0
   -0.9199   28.4302    1.9503 C   0  0  0  0  0  0
   -0.4121   28.1648    0.6461 N   0  3  0  0  0  0
   -1.1303   29.7287    2.4035 C   0  0  0  0  0  0
   -0.9612   31.0636    1.8564 C   0  0  0  0  0  0
   -0.4493   31.3791    0.4843 C   0  0  0  0  0  0
   -0.5644   28.9642    0.0281 H   0  0  0  0  0  0
    0.5711   27.8890    0.6916 H   0  0  0  0  0  0
   -0.9633   27.3688    0.3019 H   0  0  0  0  0  0
  1  2  1  0  0  0
  2  3  1  0  0  0
  3  4  1  0  0  0
  4  5  2  0  0  0
  5  6  1  0  0  0
  6  7  1  0  0  0
  7  8  1  0  0  0
  8  9  1  0  0  0
  8 10  1  0  0  0
  6 11  2  0  0  0
 11 12  1  0  0  0
 12 13  1  0  0  0
 12 14  2  0  0  0
 14 15  1  0  0  0
 15 16  1  0  0  0
 15  2  2  0  0  0
 14  4  1  0  0  0
 13 17  1  0  0  0
 13 18  1  0  0  0
 13 19  1  0  0  0
M  END
>  <CHROM.0>
-59.88758699,69.03111907

>  <CHROM.1>
-104.74227924,159.96137986,159.05547929,-1.14096754,28.70132123,3.44022533
1.78154004,1.21714293,-0.58460356

>  <Name>
5aa9a8d3-4cce-4a9d-a2da-785484f7a19d

>  <RI>
2.1321e+07

>  <Rbt.Current_Directory>
/data/work/jku/5V6S/work/40/8dba899c20c42488f2b1a17844994e

>  <Rbt.Executable>
rbdock ($Id: //depot/dev/client3/rdock/2013.1/src/exe/rbdock.cxx#4 $)

>  <Rbt.Library>
libRbt.so (2013.1, Build901 2013/11/27)

>  <Rbt.Parameter_File>
/rDock_2013.1_src/data/scripts/dock.prm

>  <Rbt.Receptor>
docking.prm

>  <SCORE>
-18.0777

>  <SCORE.INTER>
-17.5701

>  <SCORE.INTER.CONST>
1

>  <SCORE.INTER.POLAR>
-0.778758

>  <SCORE.INTER.REPUL>
0

>  <SCORE.INTER.ROT>
2

>  <SCORE.INTER.VDW>
-22.3223

>  <SCORE.INTER.norm>
-1.09813

>  <SCORE.INTRA>
1.00596

>  <SCORE.INTRA.DIHEDRAL>
0.241075

>  <SCORE.INTRA.DIHEDRAL.0>
3.03769

>  <SCORE.INTRA.POLAR>
0

>  <SCORE.INTRA.POLAR.0>
0

>  <SCORE.INTRA.REPUL>
0

>  <SCORE.INTRA.REPUL.0>
0

>  <SCORE.INTRA.VDW>
0.885425

>  <SCORE.INTRA.VDW.0>
-1.09867

>  <SCORE.INTRA.norm>
0.0628727

>  <SCORE.RESTR>
0

>  <SCORE.RESTR.CAVITY>
0

>  <SCORE.RESTR.norm>
0

>  <SCORE.SYSTEM>
-1.5136

>  <SCORE.SYSTEM.CONST>
0

>  <SCORE.SYSTEM.DIHEDRAL>
0.402675

>  <SCORE.SYSTEM.POLAR>
-0.503005

>  <SCORE.SYSTEM.VDW>
-0.00472125

>  <SCORE.SYSTEM.norm>
-0.0945999

>  <SCORE.heavy>
16

>  <SCORE.norm>
-1.12986

>  <enum_code>
M

>  <enum_smi>
Cc1sc2nc(SC(C)C)nc([NH3+])c2c1C

>  <sha256>
f184dd6951dd47e0055fc30c5b0e95ad9abd5d41652c716f1f97c53591a4cb37

>  <std_smi>
Cc1sc2nc(SC(C)C)nc(N)c2c1C

>  <uuid>
5aa9a8d3-4cce-4a9d-a2da-785484f7a19d

$$$$
5aa9a8d3-4cce-4a9d-a2da-785484f7a19d
  rDOCK(R)          3D
libRbt.so/2013.1/901 2013/11/27
 19 20  0  0  0  0  0  0  0  0999 V2000
   -0.2713   31.9986    0.3566 C   0  0  0  0  0  0
   -0.7624   31.2334    1.5479 C   0  0  0  0  0  0
   -0.9841   29.5435    1.4106 S   0  0  0  0  0  0
   -1.5042   29.4116    3.0161 C   0  0  0  0  0  0
   -1.8498   28.2228    3.5282 N   0  0  0  0  0  0
   -2.2317   28.2583    4.8007 C   0  0  0  0  0  0
   -2.7404   26.7623    5.6057 S   0  0  0  0  0  0
   -1.6467   25.5141    4.8176 C   0  0  0  0  0  0
   -0.2165   25.6523    5.3330 C   0  0  0  0  0  0
   -2.1966   24.1264    5.1438 C   0  0  0  0  0  0
   -2.2962   29.3652    5.5593 N   0  0  0  0  0  0
   -1.9465   30.5128    4.9994 C   0  0  0  0  0  0
   -2.0403   31.6468    5.8565 N   0  3  0  0  0  0
   -1.5195   30.6261    3.6800 C   0  0  0  0  0  0
   -1.0833   31.7084    2.8152 C   0  0  0  0  0  0
   -0.9825   33.1489    3.2138 C   0  0  0  0  0  0
   -2.3554   32.4686    5.3373 H   0  0  0  0  0  0
   -2.6363   31.4419    6.6612 H   0  0  0  0  0  0
   -1.0817   31.8107    6.1883 H   0  0  0  0  0  0
  1  2  1  0  0  0
  2  3  1  0  0  0
  3  4  1  0  0  0
  4  5  2  0  0  0
  5  6  1  0  0  0
  6  7  1  0  0  0
  7  8  1  0  0  0
  8  9  1  0  0  0
  8 10  1  0  0  0
  6 11  2  0  0  0
 11 12  1  0  0  0
 12 13  1  0  0  0
 12 14  2  0  0  0
 14 15  1  0  0  0
 15 16  1  0  0  0
 15  2  2  0  0  0
 14  4  1  0  0  0
 13 17  1  0  0  0
 13 18  1  0  0  0
 13 19  1  0  0  0
M  END
>  <CHROM.0>
-59.88758699,68.93610115

>  <CHROM.1>
34.26525316,73.19322542,-143.44057845,-1.56226315,29.06817842,3.84078785
-1.08060828,-1.23629099,3.12338340

>  <Name>
5aa9a8d3-4cce-4a9d-a2da-785484f7a19d

>  <RI>
2.1321e+07

>  <Rbt.Current_Directory>
/data/work/jku/5V6S/work/40/8dba899c20c42488f2b1a17844994e

>  <Rbt.Executable>
rbdock ($Id: //depot/dev/client3/rdock/2013.1/src/exe/rbdock.cxx#4 $)

>  <Rbt.Library>
libRbt.so (2013.1, Build901 2013/11/27)

>  <Rbt.Parameter_File>
/rDock_2013.1_src/data/scripts/dock.prm

>  <Rbt.Receptor>
docking.prm

>  <SCORE>
-17.6598

>  <SCORE.INTER>
-16.355

>  <SCORE.INTER.CONST>
1

>  <SCORE.INTER.POLAR>
-0.635839

>  <SCORE.INTER.REPUL>
0

>  <SCORE.INTER.ROT>
2

>  <SCORE.INTER.VDW>
-21.5932

>  <SCORE.INTER.norm>
-1.02219

>  <SCORE.INTRA>
0.208861

>  <SCORE.INTRA.DIHEDRAL>
-0.106158

>  <SCORE.INTRA.DIHEDRAL.0>
3.03769

>  <SCORE.INTRA.POLAR>
0

>  <SCORE.INTRA.POLAR.0>
0

>  <SCORE.INTRA.REPUL>
0

>  <SCORE.INTRA.REPUL.0>
0

>  <SCORE.INTRA.VDW>
0.261941

>  <SCORE.INTRA.VDW.0>
-1.09867

>  <SCORE.INTRA.norm>
0.0130538

>  <SCORE.RESTR>
0

>  <SCORE.RESTR.CAVITY>
0

>  <SCORE.RESTR.norm>
0

>  <SCORE.SYSTEM>
-1.51367

>  <SCORE.SYSTEM.CONST>
0

>  <SCORE.SYSTEM.DIHEDRAL>
0.394558

>  <SCORE.SYSTEM.POLAR>
-0.502945

>  <SCORE.SYSTEM.VDW>
-0.000930534

>  <SCORE.SYSTEM.norm>
-0.0946041

>  <SCORE.heavy>
16

>  <SCORE.norm>
-1.10374

>  <enum_code>
M

>  <enum_smi>
Cc1sc2nc(SC(C)C)nc([NH3+])c2c1C

>  <sha256>
f184dd6951dd47e0055fc30c5b0e95ad9abd5d41652c716f1f97c53591a4cb37

>  <std_smi>
Cc1sc2nc(SC(C)C)nc(N)c2c1C

>  <uuid>
5aa9a8d3-4cce-4a9d-a2da-785484f7a19d

$$$$
18c8a01b-7861-4ac8-bba7-a757593d8507
  rDOCK(R)          3D
libRbt.so/2013.1/901 2013/11/27
 18 19  0  0  0  0  0  0  0  0999 V2000
   -0.9109   33.4250    3.7109 C   0  0  0  0  0  0
   -1.3864   32.6420    2.4822 C   0  0  0  0  0  0
   -2.5880   33.3096    1.8046 C   0  0  0  0  0  0
   -0.2318   32.5701    1.4708 C   0  0  0  0  0  0
   -1.6684   31.2588    2.8138 O   0  0  0  0  0  0
   -2.6956   30.9292    3.6376 C   0  0  0  0  0  0
   -3.5493   31.7141    4.0306 O   0  0  0  0  0  0
   -2.6708   29.5900    3.9912 N   0  0  0  0  0  0
   -3.6479   29.0944    4.9508 C   0  0  0  0  0  0
   -3.0996   27.9299    5.7616 C   0  0  0  0  0  0
   -2.6681   26.7696    4.8515 C   0  0  0  0  0  0
   -1.6724   25.9341    5.5190 N   0  0  0  0  0  0
   -0.3150   26.0836    5.4656 C   0  0  0  0  0  0
    0.2103   25.0736    6.2366 C   0  0  0  0  0  0
   -0.9097   24.3691    6.7122 C   0  0  0  0  0  0
   -2.0597   24.8905    6.2788 N   0  0  0  0  0  0
   -2.1983   27.2291    3.4606 C   0  0  0  0  0  0
   -1.6643   28.6557    3.4874 C   0  0  0  0  0  0
  1  2  1  0  0  0
  2  3  1  0  0  0
  2  4  1  0  0  0
  2  5  1  0  0  0
  5  6  1  0  0  0
  6  7  2  0  0  0
  6  8  1  0  0  0
  8  9  1  0  0  0
  9 10  1  0  0  0
 10 11  1  0  0  0
 11 12  1  0  0  0
 12 13  1  0  0  0
 13 14  2  0  0  0
 14 15  1  0  0  0
 15 16  2  0  0  0
 11 17  1  0  0  0
 17 18  1  0  0  0
 18  8  1  0  0  0
 16 12  1  0  0  0
M  END
>  <CHROM.0>
-59.88758699,67.69586459

>  <CHROM.1>
66.60692916,9.23066811,-90.70294893,-1.89016494,29.06953072,4.21685907,-1.62661008
-0.26299225,2.69678390

>  <Name>
18c8a01b-7861-4ac8-bba7-a757593d8507

>  <RI>
2.53514e+07

>  <Rbt.Current_Directory>
/data/work/jku/5V6S/work/40/8dba899c20c42488f2b1a17844994e

>  <Rbt.Executable>
rbdock ($Id: //depot/dev/client3/rdock/2013.1/src/exe/rbdock.cxx#4 $)

>  <Rbt.Library>
libRbt.so (2013.1, Build901 2013/11/27)

>  <Rbt.Parameter_File>
/rDock_2013.1_src/data/scripts/dock.prm

>  <Rbt.Receptor>
docking.prm

>  <SCORE>
-8.9451

>  <SCORE.INTER>
-8.47143

>  <SCORE.INTER.CONST>
1

>  <SCORE.INTER.POLAR>
0

>  <SCORE.INTER.REPUL>
0

>  <SCORE.INTER.ROT>
3

>  <SCORE.INTER.VDW>
-16.8714

>  <SCORE.INTER.norm>
-0.470635

>  <SCORE.INTRA>
1.03295

>  <SCORE.INTRA.DIHEDRAL>
0.651235

>  <SCORE.INTRA.DIHEDRAL.0>
2.43672

>  <SCORE.INTRA.POLAR>
0

>  <SCORE.INTRA.POLAR.0>
0

>  <SCORE.INTRA.REPUL>
0

>  <SCORE.INTRA.REPUL.0>
0

>  <SCORE.INTRA.VDW>
0.707329

>  <SCORE.INTRA.VDW.0>
-0.178654

>  <SCORE.INTRA.norm>
0.0573859

>  <SCORE.RESTR>
0

>  <SCORE.RESTR.CAVITY>
0

>  <SCORE.RESTR.norm>
0

>  <SCORE.SYSTEM>
-1.50662

>  <SCORE.SYSTEM.CONST>
0

>  <SCORE.SYSTEM.DIHEDRAL>
0.295968

>  <SCORE.SYSTEM.POLAR>
-0.501494

>  <SCORE.SYSTEM.VDW>
0.0504715

>  <SCORE.SYSTEM.norm>
-0.0837013

>  <SCORE.heavy>
18

>  <SCORE.norm>
-0.49695

>  <enum_code>
B

>  <enum_smi>
CC(C)(C)OC(=O)N1CCC(n2cccn2)CC1

>  <sha256>
4334bda058dd8a43ee9d0d9c7bb1edabd8824594d18609c4fee1cb3dfbf32569

>  <std_smi>
CC(C)(C)OC(=O)N1CCC(n2cccn2)CC1

>  <uuid>
18c8a01b-7861-4ac8-bba7-a757593d8507

$$$$
18c8a01b-7861-4ac8-bba7-a757593d8507
  rDOCK(R)          3D
libRbt.so/2013.1/901 2013/11/27
 18 19  0  0  0  0  0  0  0  0999 V2000
   -0.7813   33.3709    3.7449 C   0  0  0  0  0  0
   -1.6758   32.4496    2.9082 C   0  0  0  0  0  0
   -3.1464   32.8784    2.9551 C   0  0  0  0  0  0
   -1.1983   32.4975    1.4485 C   0  0  0  0  0  0
   -1.5176   31.0622    3.2991 O   0  0  0  0  0  0
   -1.7080   30.6682    4.5840 C   0  0  0  0  0  0
   -1.7302   31.4254    5.5460 O   0  0  0  0  0  0
   -1.8745   29.2969    4.6893 N   0  0  0  0  0  0
   -1.9912   28.6988    6.0120 C   0  0  0  0  0  0
   -1.4474   27.2784    6.0373 C   0  0  0  0  0  0
   -2.1766   26.3829    5.0238 C   0  0  0  0  0  0
   -1.3402   25.2461    4.6453 N   0  0  0  0  0  0
    0.0194   25.2450    4.5060 C   0  0  0  0  0  0
    0.3635   23.9664    4.1358 C   0  0  0  0  0  0
   -0.8572   23.2711    4.0789 C   0  0  0  0  0  0
   -1.8986   24.0464    4.3900 N   0  0  0  0  0  0
   -2.6975   27.1510    3.7969 C   0  0  0  0  0  0
   -1.8793   28.4077    3.5278 C   0  0  0  0  0  0
  1  2  1  0  0  0
  2  3  1  0  0  0
  2  4  1  0  0  0
  2  5  1  0  0  0
  5  6  1  0  0  0
  6  7  2  0  0  0
  6  8  1  0  0  0
  8  9  1  0  0  0
  9 10  1  0  0  0
 10 11  1  0  0  0
 11 12  1  0  0  0
 12 13  1  0  0  0
 13 14  2  0  0  0
 14 15  1  0  0  0
 15 16  2  0  0  0
 11 17  1  0  0  0
 17 18  1  0  0  0
 18  8  1  0  0  0
 16 12  1  0  0  0
M  END
>  <CHROM.0>
-59.88758699,69.86640222

>  <CHROM.1>
55.69914189,-16.69300595,-35.07049122,-1.54474796,28.62751623,4.17391984
1.91040858,1.30744451,-0.48166696

>  <Name>
18c8a01b-7861-4ac8-bba7-a757593d8507

>  <RI>
2.53514e+07

>  <Rbt.Current_Directory>
/data/work/jku/5V6S/work/40/8dba899c20c42488f2b1a17844994e

>  <Rbt.Executable>
rbdock ($Id: //depot/dev/client3/rdock/2013.1/src/exe/rbdock.cxx#4 $)

>  <Rbt.Library>
libRbt.so (2013.1, Build901 2013/11/27)

>  <Rbt.Parameter_File>
/rDock_2013.1_src/data/scripts/dock.prm

>  <Rbt.Receptor>
docking.prm

>  <SCORE>
-9.73045

>  <SCORE.INTER>
-10.4313

>  <SCORE.INTER.CONST>
1

>  <SCORE.INTER.POLAR>
0

>  <SCORE.INTER.REPUL>
0.0843323

>  <SCORE.INTER.ROT>
3

>  <SCORE.INTER.VDW>
-19.253

>  <SCORE.INTER.norm>
-0.579517

>  <SCORE.INTRA>
2.21025

>  <SCORE.INTRA.DIHEDRAL>
2.15627

>  <SCORE.INTRA.DIHEDRAL.0>
2.43672

>  <SCORE.INTRA.POLAR>
0

>  <SCORE.INTRA.POLAR.0>
0

>  <SCORE.INTRA.REPUL>
0

>  <SCORE.INTRA.REPUL.0>
0

>  <SCORE.INTRA.VDW>
1.13211

>  <SCORE.INTRA.VDW.0>
-0.178654

>  <SCORE.INTRA.norm>
0.122792

>  <SCORE.RESTR>
0

>  <SCORE.RESTR.CAVITY>
0

>  <SCORE.RESTR.norm>
0

>  <SCORE.SYSTEM>
-1.50938

>  <SCORE.SYSTEM.CONST>
0

>  <SCORE.SYSTEM.DIHEDRAL>
0.477425

>  <SCORE.SYSTEM.POLAR>
-0.503214

>  <SCORE.SYSTEM.VDW>
-0.0371671

>  <SCORE.SYSTEM.norm>
-0.0838546

>  <SCORE.heavy>
18

>  <SCORE.norm>
-0.54058

>  <enum_code>
B

>  <enum_smi>
CC(C)(C)OC(=O)N1CCC(n2cccn2)CC1

>  <sha256>
4334bda058dd8a43ee9d0d9c7bb1edabd8824594d18609c4fee1cb3dfbf32569

>  <std_smi>
CC(C)(C)OC(=O)N1CCC(n2cccn2)CC1

>  <uuid>
18c8a01b-7861-4ac8-bba7-a757593d8507

$$$$
18c8a01b-7861-4ac8-bba7-a757593d8507
  rDOCK(R)          3D
libRbt.so/2013.1/901 2013/11/27
 18 19  0  0  0  0  0  0  0  0999 V2000
   -3.9553   29.8188    3.7102 C   0  0  0  0  0  0
   -4.0839   29.1574    5.0868 C   0  0  0  0  0  0
   -3.4952   30.0298    6.2009 C   0  0  0  0  0  0
   -5.5742   28.9267    5.3816 C   0  0  0  0  0  0
   -3.5006   27.8299    5.0917 O   0  0  0  0  0  0
   -2.1676   27.6475    4.9115 C   0  0  0  0  0  0
   -1.3607   28.5519    4.7381 O   0  0  0  0  0  0
   -1.8160   26.3079    4.9439 N   0  0  0  0  0  0
   -0.4361   25.9328    4.6680 C   0  0  0  0  0  0
   -0.3440   24.5533    4.0336 C   0  0  0  0  0  0
   -0.9772   23.4811    4.9338 C   0  0  0  0  0  0
   -1.3907   22.3235    4.1436 N   0  0  0  0  0  0
   -2.4303   22.2703    3.2582 C   0  0  0  0  0  0
   -2.4424   20.9884    2.7612 C   0  0  0  0  0  0
   -1.3718   20.3455    3.4074 C   0  0  0  0  0  0
   -0.7267   21.1555    4.2500 N   0  0  0  0  0  0
   -2.1202   24.0200    5.8110 C   0  0  0  0  0  0
   -2.7856   25.2396    5.1856 C   0  0  0  0  0  0
  1  2  1  0  0  0
  2  3  1  0  0  0
  2  4  1  0  0  0
  2  5  1  0  0  0
  5  6  1  0  0  0
  6  7  2  0  0  0
  6  8  1  0  0  0
  8  9  1  0  0  0
  9 10  1  0  0  0
 10 11  1  0  0  0
 11 12  1  0  0  0
 12 13  1  0  0  0
 13 14  2  0  0  0
 14 15  1  0  0  0
 15 16  2  0  0  0
 11 17  1  0  0  0
 17 18  1  0  0  0
 18  8  1  0  0  0
 16 12  1  0  0  0
M  END
>  <CHROM.0>
-59.88758699,68.58472280

>  <CHROM.1>
65.35687928,0.21223307,-70.62342087,-2.29801787,25.58182237,4.60497164,1.86085174
-0.12138577,0.20488124

>  <Name>
18c8a01b-7861-4ac8-bba7-a757593d8507

>  <RI>
2.53514e+07

>  <Rbt.Current_Directory>
/data/work/jku/5V6S/work/40/8dba899c20c42488f2b1a17844994e

>  <Rbt.Executable>
rbdock ($Id: //depot/dev/client3/rdock/2013.1/src/exe/rbdock.cxx#4 $)

>  <Rbt.Library>
libRbt.so (2013.1, Build901 2013/11/27)

>  <Rbt.Parameter_File>
/rDock_2013.1_src/data/scripts/dock.prm

>  <Rbt.Receptor>
docking.prm

>  <SCORE>
-9.43653

>  <SCORE.INTER>
-8.25383

>  <SCORE.INTER.CONST>
1

>  <SCORE.INTER.POLAR>
-0.497458

>  <SCORE.INTER.REPUL>
0

>  <SCORE.INTER.ROT>
3

>  <SCORE.INTER.VDW>
-14.9625

>  <SCORE.INTER.norm>
-0.458546

>  <SCORE.INTRA>
0.330463

>  <SCORE.INTRA.DIHEDRAL>
0.0159148

>  <SCORE.INTRA.DIHEDRAL.0>
2.43672

>  <SCORE.INTRA.POLAR>
0

>  <SCORE.INTRA.POLAR.0>
0

>  <SCORE.INTRA.REPUL>
0

>  <SCORE.INTRA.REPUL.0>
0

>  <SCORE.INTRA.VDW>
0.322506

>  <SCORE.INTRA.VDW.0>
-0.178654

>  <SCORE.INTRA.norm>
0.0183591

>  <SCORE.RESTR>
0

>  <SCORE.RESTR.CAVITY>
0

>  <SCORE.RESTR.norm>
0

>  <SCORE.SYSTEM>
-1.51317

>  <SCORE.SYSTEM.CONST>
0

>  <SCORE.SYSTEM.DIHEDRAL>
0.365231

>  <SCORE.SYSTEM.POLAR>
-0.502662

>  <SCORE.SYSTEM.VDW>
0.0132677

>  <SCORE.SYSTEM.norm>
-0.0840649

>  <SCORE.heavy>
18

>  <SCORE.norm>
-0.524252

>  <enum_code>
B

>  <enum_smi>
CC(C)(C)OC(=O)N1CCC(n2cccn2)CC1

>  <sha256>
4334bda058dd8a43ee9d0d9c7bb1edabd8824594d18609c4fee1cb3dfbf32569

>  <std_smi>
CC(C)(C)OC(=O)N1CCC(n2cccn2)CC1

>  <uuid>
18c8a01b-7861-4ac8-bba7-a757593d8507

$$$$
18c8a01b-7861-4ac8-bba7-a757593d8507
  rDOCK(R)          3D
libRbt.so/2013.1/901 2013/11/27
 18 19  0  0  0  0  0  0  0  0999 V2000
   -1.0119   23.7651    4.2216 C   0  0  0  0  0  0
   -1.4087   24.6879    5.3792 C   0  0  0  0  0  0
   -2.6330   24.1644    6.1379 C   0  0  0  0  0  0
   -0.2283   24.7797    6.3586 C   0  0  0  0  0  0
   -1.6122   26.0494    4.9236 O   0  0  0  0  0  0
   -2.6448   26.3685    4.1023 C   0  0  0  0  0  0
   -3.5568   25.6071    3.8061 O   0  0  0  0  0  0
   -2.5511   27.6667    3.6279 N   0  0  0  0  0  0
   -3.5281   28.1356    2.6550 C   0  0  0  0  0  0
   -2.9382   29.1865    1.7267 C   0  0  0  0  0  0
   -2.4074   30.3936    2.5152 C   0  0  0  0  0  0
   -1.3860   31.1020    1.7470 N   0  0  0  0  0  0
   -0.3789   30.5380    1.0153 C   0  0  0  0  0  0
    0.3321   31.5839    0.4759 C   0  0  0  0  0  0
   -0.3240   32.7377    0.9398 C   0  0  0  0  0  0
   -1.3727   32.4493    1.7139 N   0  0  0  0  0  0
   -1.9197   30.0310    3.9285 C   0  0  0  0  0  0
   -1.4739   28.5768    4.0165 C   0  0  0  0  0  0
  1  2  1  0  0  0
  2  3  1  0  0  0
  2  4  1  0  0  0
  2  5  1  0  0  0
  5  6  1  0  0  0
  6  7  2  0  0  0
  6  8  1  0  0  0
  8  9  1  0  0  0
  9 10  1  0  0  0
 10 11  1  0  0  0
 11 12  1  0  0  0
 12 13  1  0  0  0
 13 14  2  0  0  0
 14 15  1  0  0  0
 15 16  2  0  0  0
 11 17  1  0  0  0
 17 18  1  0  0  0
 18  8  1  0  0  0
 16 12  1  0  0  0
M  END
>  <CHROM.0>
-59.88758699,68.98179246

>  <CHROM.1>
67.32571214,8.78332149,-42.38826285,-1.74460351,28.11993018,3.34818134,-1.67414620
-0.16308166,-0.52931561

>  <Name>
18c8a01b-7861-4ac8-bba7-a757593d8507

>  <RI>
2.53514e+07

>  <Rbt.Current_Directory>
/data/work/jku/5V6S/work/40/8dba899c20c42488f2b1a17844994e

>  <Rbt.Executable>
rbdock ($Id: //depot/dev/client3/rdock/2013.1/src/exe/rbdock.cxx#4 $)

>  <Rbt.Library>
libRbt.so (2013.1, Build901 2013/11/27)

>  <Rbt.Parameter_File>
/rDock_2013.1_src/data/scripts/dock.prm

>  <Rbt.Receptor>
docking.prm

>  <SCORE>
-8.94747

>  <SCORE.INTER>
-8.45726

>  <SCORE.INTER.CONST>
1

>  <SCORE.INTER.POLAR>
0

>  <SCORE.INTER.REPUL>
0

>  <SCORE.INTER.ROT>
3

>  <SCORE.INTER.VDW>
-16.8573

>  <SCORE.INTER.norm>
-0.469848

>  <SCORE.INTRA>
1.02343

>  <SCORE.INTRA.DIHEDRAL>
0.640111

>  <SCORE.INTRA.DIHEDRAL.0>
2.43672

>  <SCORE.INTRA.POLAR>
0

>  <SCORE.INTRA.POLAR.0>
0

>  <SCORE.INTRA.REPUL>
0

>  <SCORE.INTRA.REPUL.0>
0

>  <SCORE.INTRA.VDW>
0.703377

>  <SCORE.INTRA.VDW.0>
-0.178654

>  <SCORE.INTRA.norm>
0.0568573

>  <SCORE.RESTR>
0

>  <SCORE.RESTR.CAVITY>
0

>  <SCORE.RESTR.norm>
0

>  <SCORE.SYSTEM>
-1.51364

>  <SCORE.SYSTEM.CONST>
0

>  <SCORE.SYSTEM.DIHEDRAL>
0.398451

>  <SCORE.SYSTEM.POLAR>
-0.502975

>  <SCORE.SYSTEM.VDW>
-0.00275595

>  <SCORE.SYSTEM.norm>
-0.0840913

>  <SCORE.heavy>
18

>  <SCORE.norm>
-0.497082

>  <enum_code>
B

>  <enum_smi>
CC(C)(C)OC(=O)N1CCC(n2cccn2)CC1

>  <sha256>
4334bda058dd8a43ee9d0d9c7bb1edabd8824594d18609c4fee1cb3dfbf32569

>  <std_smi>
CC(C)(C)OC(=O)N1CCC(n2cccn2)CC1

>  <uuid>
18c8a01b-7861-4ac8-bba7-a757593d8507

$$$$
18c8a01b-7861-4ac8-bba7-a757593d8507
  rDOCK(R)          3D
libRbt.so/2013.1/901 2013/11/27
 18 19  0  0  0  0  0  0  0  0999 V2000
   -0.9764   33.4564    3.7017 C   0  0  0  0  0  0
   -1.4390   32.6492    2.4837 C   0  0  0  0  0  0
   -2.6566   33.2834    1.8025 C   0  0  0  0  0  0
   -0.2864   32.5898    1.4694 C   0  0  0  0  0  0
   -1.6908   31.2644    2.8323 O   0  0  0  0  0  0
   -2.6981   30.9242    3.6762 C   0  0  0  0  0  0
   -3.5516   31.7004    4.0865 O   0  0  0  0  0  0
   -2.6527   29.5853    4.0288 N   0  0  0  0  0  0
   -3.6054   29.0796    5.0073 C   0  0  0  0  0  0
   -3.0295   27.9206    5.8066 C   0  0  0  0  0  0
   -2.6044   26.7649    4.8877 C   0  0  0  0  0  0
   -1.5872   25.9394    5.5349 N   0  0  0  0  0  0
   -1.7980   24.7820    6.2305 C   0  0  0  0  0  0
   -0.5601   24.3636    6.6583 C   0  0  0  0  0  0
    0.3324   25.3343    6.1705 C   0  0  0  0  0  0
   -0.2885   26.2962    5.4839 N   0  0  0  0  0  0
   -2.1669   27.2294    3.4879 C   0  0  0  0  0  0
   -1.6470   28.6613    3.5046 C   0  0  0  0  0  0
  1  2  1  0  0  0
  2  3  1  0  0  0
  2  4  1  0  0  0
  2  5  1  0  0  0
  5  6  1  0  0  0
  6  7  2  0  0  0
  6  8  1  0  0  0
  8  9  1  0  0  0
  9 10  1  0  0  0
 10 11  1  0  0  0
 11 12  1  0  0  0
 12 13  1  0  0  0
 13 14  2  0  0  0
 14 15  1  0  0  0
 15 16  2  0  0  0
 11 17  1  0  0  0
 17 18  1  0  0  0
 18  8  1  0  0  0
 16 12  1  0  0  0
M  END
>  <CHROM.0>
-59.88758699,-61.72795490

>  <CHROM.1>
65.79377925,8.51883559,96.08394667,-1.84126576,29.09350050,4.22486470,-1.65504770
-0.25454779,2.69164271

>  <Name>
18c8a01b-7861-4ac8-bba7-a757593d8507

>  <RI>
2.53514e+07

>  <Rbt.Current_Directory>
/data/work/jku/5V6S/work/40/8dba899c20c42488f2b1a17844994e

>  <Rbt.Executable>
rbdock ($Id: //depot/dev/client3/rdock/2013.1/src/exe/rbdock.cxx#4 $)

>  <Rbt.Library>
libRbt.so (2013.1, Build901 2013/11/27)

>  <Rbt.Parameter_File>
/rDock_2013.1_src/data/scripts/dock.prm

>  <Rbt.Receptor>
docking.prm

>  <SCORE>
-6.99704

>  <SCORE.INTER>
-8.51167

>  <SCORE.INTER.CONST>
1

>  <SCORE.INTER.POLAR>
0

>  <SCORE.INTER.REPUL>
0.00100774

>  <SCORE.INTER.ROT>
3

>  <SCORE.INTER.VDW>
-16.9167

>  <SCORE.INTER.norm>
-0.47287

>  <SCORE.INTRA>
0.491813

>  <SCORE.INTRA.DIHEDRAL>
0.555179

>  <SCORE.INTRA.DIHEDRAL.0>
2.43672

>  <SCORE.INTRA.POLAR>
0

>  <SCORE.INTRA.POLAR.0>
0

>  <SCORE.INTRA.REPUL>
0

>  <SCORE.INTRA.REPUL.0>
0

>  <SCORE.INTRA.VDW>
0.214223

>  <SCORE.INTRA.VDW.0>
-0.178654

>  <SCORE.INTRA.norm>
0.0273229

>  <SCORE.RESTR>
0

>  <SCORE.RESTR.CAVITY>
0

>  <SCORE.RESTR.norm>
0

>  <SCORE.SYSTEM>
1.02281

>  <SCORE.SYSTEM.CONST>
0

>  <SCORE.SYSTEM.DIHEDRAL>
0.0223557

>  <SCORE.SYSTEM.REPUL>
0.134595

>  <SCORE.SYSTEM.VDW>
0.338654

>  <SCORE.SYSTEM.norm>
0.0568227

>  <SCORE.heavy>
18

>  <SCORE.norm>
-0.388725

>  <enum_code>
B

>  <enum_smi>
CC(C)(C)OC(=O)N1CCC(n2cccn2)CC1

>  <sha256>
4334bda058dd8a43ee9d0d9c7bb1edabd8824594d18609c4fee1cb3dfbf32569

>  <std_smi>
CC(C)(C)OC(=O)N1CCC(n2cccn2)CC1

>  <uuid>
18c8a01b-7861-4ac8-bba7-a757593d8507

$$$$
deb555d5-ea27-4291-93ef-7c89b1a971c1
  rDOCK(R)          3D
libRbt.so/2013.1/901 2013/11/27
 19 20  0  0  0  0  0  0  0  0999 V2000
   -3.4829   23.2295    4.3712 C   0  0  0  0  0  0
   -2.2084   24.0301    4.6750 C   0  0  0  0  0  0
   -1.0193   23.3425    3.9958 C   0  0  0  0  0  0
   -2.0285   24.1149    6.1944 C   0  0  0  0  0  0
   -2.4499   25.3446    4.1024 O   0  0  0  0  0  0
   -1.5194   26.3069    4.1951 C   0  0  0  0  0  0
   -0.3786   26.2455    4.5992 O   0  0  0  0  0  0
   -1.8785   27.6421    3.7603 N   0  3  0  0  0  0
   -1.0489   28.0779    2.6016 C   0  0  0  0  0  0
   -1.5566   29.4206    2.1008 C   0  0  0  0  0  0
   -1.5826   30.4439    3.2411 C   0  0  0  0  0  0
   -2.0085   31.7575    2.7862 N   0  0  0  0  0  0
   -3.1214   32.0807    2.0685 C   0  0  0  0  0  0
   -3.0718   33.4445    1.8916 C   0  0  0  0  0  0
   -1.8907   33.8468    2.5404 C   0  0  0  0  0  0
   -1.2412   32.8155    3.0869 N   0  0  0  0  0  0
   -2.4249   29.9418    4.4185 C   0  0  0  0  0  0
   -1.9118   28.5958    4.9048 C   0  0  0  0  0  0
   -2.8392   27.4568    3.4421 H   0  0  0  0  0  0
  1  2  1  0  0  0
  2  3  1  0  0  0
  2  4  1  0  0  0
  2  5  1  0  0  0
  5  6  1  0  0  0
  6  7  2  0  0  0
  6  8  1  0  0  0
  8  9  1  0  0  0
  9 10  1  0  0  0
 10 11  1  0  0  0
 11 12  1  0  0  0
 12 13  1  0  0  0
 13 14  2  0  0  0
 14 15  1  0  0  0
 15 16  2  0  0  0
 11 17  1  0  0  0
 17 18  1  0  0  0
 18  8  1  0  0  0
 16 12  1  0  0  0
  8 19  1  0  0  0
M  END
>  <CHROM.0>
-59.88758699,68.11278868

>  <CHROM.1>
179.84201197,7.73188589,-116.82880559,51.68168242,-1.92651789,28.25497501
3.67227305,1.54903480,0.44861042,2.90335224

>  <Name>
deb555d5-ea27-4291-93ef-7c89b1a971c1

>  <RI>
2.84071e+07

>  <Rbt.Current_Directory>
/data/work/jku/5V6S/work/40/8dba899c20c42488f2b1a17844994e

>  <Rbt.Executable>
rbdock ($Id: //depot/dev/client3/rdock/2013.1/src/exe/rbdock.cxx#4 $)

>  <Rbt.Library>
libRbt.so (2013.1, Build901 2013/11/27)

>  <Rbt.Parameter_File>
/rDock_2013.1_src/data/scripts/dock.prm

>  <Rbt.Receptor>
docking.prm

>  <SCORE>
-8.84768

>  <SCORE.INTER>
-8.35842

>  <SCORE.INTER.CONST>
1

>  <SCORE.INTER.POLAR>
0

>  <SCORE.INTER.REPUL>
0

>  <SCORE.INTER.ROT>
4

>  <SCORE.INTER.VDW>
-17.7584

>  <SCORE.INTER.norm>
-0.464357

>  <SCORE.INTRA>
1.02138

>  <SCORE.INTRA.DIHEDRAL>
0.420194

>  <SCORE.INTRA.DIHEDRAL.0>
3.62301

>  <SCORE.INTRA.POLAR>
0

>  <SCORE.INTRA.POLAR.0>
0

>  <SCORE.INTRA.REPUL>
0

>  <SCORE.INTRA.REPUL.0>
0

>  <SCORE.INTRA.VDW>
0.811287

>  <SCORE.INTRA.VDW.0>
-0.155044

>  <SCORE.INTRA.norm>
0.0567436

>  <SCORE.RESTR>
0

>  <SCORE.RESTR.CAVITY>
0

>  <SCORE.RESTR.norm>
0

>  <SCORE.SYSTEM>
-1.51064

>  <SCORE.SYSTEM.CONST>
0

>  <SCORE.SYSTEM.DIHEDRAL>
0.327572

>  <SCORE.SYSTEM.POLAR>
-0.502123

>  <SCORE.SYSTEM.VDW>
0.0327886

>  <SCORE.SYSTEM.norm>
-0.0839246

>  <SCORE.heavy>
18

>  <SCORE.norm>
-0.491538

>  <enum_code>
M

>  <enum_smi>
CC(C)(C)OC(=O)[NH+]1CCC(n2cccn2)CC1

>  <sha256>
4334bda058dd8a43ee9d0d9c7bb1edabd8824594d18609c4fee1cb3dfbf32569

>  <std_smi>
CC(C)(C)OC(=O)N1CCC(n2cccn2)CC1

>  <uuid>
deb555d5-ea27-4291-93ef-7c89b1a971c1

$$$$
deb555d5-ea27-4291-93ef-7c89b1a971c1
  rDOCK(R)          3D
libRbt.so/2013.1/901 2013/11/27
 19 20  0  0  0  0  0  0  0  0999 V2000
   -4.5338   23.7244    4.0431 C   0  0  0  0  0  0
   -3.0915   23.9673    4.5107 C   0  0  0  0  0  0
   -2.1580   23.0252    3.7433 C   0  0  0  0  0  0
   -3.0175   23.7384    6.0241 C   0  0  0  0  0  0
   -2.8220   25.3569    4.1779 O   0  0  0  0  0  0
   -1.6434   25.9146    4.4946 C   0  0  0  0  0  0
   -0.6527   25.4110    4.9776 O   0  0  0  0  0  0
   -1.4737   27.3317    4.2423 N   0  3  0  0  0  0
   -2.3960   28.1475    5.0818 C   0  0  0  0  0  0
   -2.0825   29.6214    4.8803 C   0  0  0  0  0  0
   -2.1430   29.9846    3.3929 C   0  0  0  0  0  0
   -1.9052   31.4010    3.1666 N   0  0  0  0  0  0
   -1.6550   32.3715    4.0906 C   0  0  0  0  0  0
   -1.5017   33.5386    3.3779 C   0  0  0  0  0  0
   -1.6785   33.1633    2.0341 C   0  0  0  0  0  0
   -1.9251   31.8568    1.9055 N   0  0  0  0  0  0
   -1.1990   29.1038    2.5676 C   0  0  0  0  0  0
   -1.5180   27.6331    2.7835 C   0  0  0  0  0  0
   -0.5103   27.4440    4.5852 H   0  0  0  0  0  0
  1  2  1  0  0  0
  2  3  1  0  0  0
  2  4  1  0  0  0
  2  5  1  0  0  0
  5  6  1  0  0  0
  6  7  2  0  0  0
  6  8  1  0  0  0
  8  9  1  0  0  0
  9 10  1  0  0  0
 10 11  1  0  0  0
 11 12  1  0  0  0
 12 13  1  0  0  0
 13 14  2  0  0  0
 14 15  1  0  0  0
 15 16  2  0  0  0
 11 17  1  0  0  0
 17 18  1  0  0  0
 18  8  1  0  0  0
 16 12  1  0  0  0
  8 19  1  0  0  0
M  END
>  <CHROM.0>
-59.88758699,68.50181819

>  <CHROM.1>
177.91643021,5.19412194,64.53191405,-0.22485227,-2.08065596,27.95486902,3.88390373
2.19575161,1.35828708,2.33030514

>  <Name>
deb555d5-ea27-4291-93ef-7c89b1a971c1

>  <RI>
2.84071e+07

>  <Rbt.Current_Directory>
/data/work/jku/5V6S/work/40/8dba899c20c42488f2b1a17844994e

>  <Rbt.Executable>
rbdock ($Id: //depot/dev/client3/rdock/2013.1/src/exe/rbdock.cxx#4 $)

>  <Rbt.Library>
libRbt.so (2013.1, Build901 2013/11/27)

>  <Rbt.Parameter_File>
/rDock_2013.1_src/data/scripts/dock.prm

>  <Rbt.Receptor>
docking.prm

>  <SCORE>
-6.8888

>  <SCORE.INTER>
-6.49935

>  <SCORE.INTER.CONST>
1

>  <SCORE.INTER.POLAR>
0

>  <SCORE.INTER.REPUL>
0

>  <SCORE.INTER.ROT>
4

>  <SCORE.INTER.VDW>
-15.8993

>  <SCORE.INTER.norm>
-0.361075

>  <SCORE.INTRA>
1.12343

>  <SCORE.INTRA.DIHEDRAL>
0.211593

>  <SCORE.INTRA.DIHEDRAL.0>
3.62301

>  <SCORE.INTRA.POLAR>
0

>  <SCORE.INTRA.POLAR.0>
0

>  <SCORE.INTRA.REPUL>
0

>  <SCORE.INTRA.REPUL.0>
0

>  <SCORE.INTRA.VDW>
1.01764

>  <SCORE.INTRA.VDW.0>
-0.155044

>  <SCORE.INTRA.norm>
0.0624129

>  <SCORE.RESTR>
0

>  <SCORE.RESTR.CAVITY>
0

>  <SCORE.RESTR.norm>
0

>  <SCORE.SYSTEM>
-1.51288

>  <SCORE.SYSTEM.CONST>
0

>  <SCORE.SYSTEM.DIHEDRAL>
0.358472

>  <SCORE.SYSTEM.POLAR>
-0.502581

>  <SCORE.SYSTEM.VDW>
0.0166593

>  <SCORE.SYSTEM.norm>
-0.0840488

>  <SCORE.heavy>
18

>  <SCORE.norm>
-0.382711

>  <enum_code>
M

>  <enum_smi>
CC(C)(C)OC(=O)[NH+]1CCC(n2cccn2)CC1

>  <sha256>
4334bda058dd8a43ee9d0d9c7bb1edabd8824594d18609c4fee1cb3dfbf32569

>  <std_smi>
CC(C)(C)OC(=O)N1CCC(n2cccn2)CC1

>  <uuid>
deb555d5-ea27-4291-93ef-7c89b1a971c1

$$$$
deb555d5-ea27-4291-93ef-7c89b1a971c1
  rDOCK(R)          3D
libRbt.so/2013.1/901 2013/11/27
 19 20  0  0  0  0  0  0  0  0999 V2000
   -0.8697   33.3767    3.5514 C   0  0  0  0  0  0
   -1.5156   32.6259    2.3781 C   0  0  0  0  0  0
   -0.5241   32.5870    1.2105 C   0  0  0  0  0  0
   -2.8205   33.3332    1.9971 C   0  0  0  0  0  0
   -1.7748   31.2897    2.8896 O   0  0  0  0  0  0
   -2.3585   30.3659    2.1107 C   0  0  0  0  0  0
   -2.7975   30.4662    0.9858 O   0  0  0  0  0  0
   -2.5135   29.0277    2.6453 N   0  3  0  0  0  0
   -3.6062   28.9697    3.6569 C   0  0  0  0  0  0
   -3.8175   27.5253    4.0816 C   0  0  0  0  0  0
   -2.5033   26.9146    4.5797 C   0  0  0  0  0  0
   -2.6790   25.5499    5.0495 N   0  0  0  0  0  0
   -3.3991   24.5464    4.4727 C   0  0  0  0  0  0
   -3.2514   23.4553    5.2981 C   0  0  0  0  0  0
   -2.4246   23.9060    6.3427 C   0  0  0  0  0  0
   -2.0751   25.1862    6.1903 N   0  0  0  0  0  0
   -1.4043   27.0203    3.5172 C   0  0  0  0  0  0
   -1.2081   28.4679    3.0960 C   0  0  0  0  0  0
   -2.8150   28.5441    1.7887 H   0  0  0  0  0  0
  1  2  1  0  0  0
  2  3  1  0  0  0
  2  4  1  0  0  0
  2  5  1  0  0  0
  5  6  1  0  0  0
  6  7  2  0  0  0
  6  8  1  0  0  0
  8  9  1  0  0  0
  9 10  1  0  0  0
 10 11  1  0  0  0
 11 12  1  0  0  0
 12 13  1  0  0  0
 13 14  2  0  0  0
 14 15  1  0  0  0
 15 16  2  0  0  0
 11 17  1  0  0  0
 17 18  1  0  0  0
 18  8  1  0  0  0
 16 12  1  0  0  0
  8 19  1  0  0  0
M  END
>  <CHROM.0>
-59.88758699,68.13614750

>  <CHROM.1>
179.25316273,-3.89093282,74.56401689,43.40854394,-2.29531318,28.69540936
3.50538557,-1.39057801,0.77614037,2.61852400

>  <Name>
deb555d5-ea27-4291-93ef-7c89b1a971c1

>  <RI>
2.84071e+07

>  <Rbt.Current_Directory>
/data/work/jku/5V6S/work/40/8dba899c20c42488f2b1a17844994e

>  <Rbt.Executable>
rbdock ($Id: //depot/dev/client3/rdock/2013.1/src/exe/rbdock.cxx#4 $)

>  <Rbt.Library>
libRbt.so (2013.1, Build901 2013/11/27)

>  <Rbt.Parameter_File>
/rDock_2013.1_src/data/scripts/dock.prm

>  <Rbt.Receptor>
docking.prm

>  <SCORE>
-8.60611

>  <SCORE.INTER>
-7.37443

>  <SCORE.INTER.CONST>
1

>  <SCORE.INTER.POLAR>
0

>  <SCORE.INTER.REPUL>
0

>  <SCORE.INTER.ROT>
4

>  <SCORE.INTER.VDW>
-16.7744

>  <SCORE.INTER.norm>
-0.40969

>  <SCORE.INTRA>
0.279131

>  <SCORE.INTRA.DIHEDRAL>
0.108985

>  <SCORE.INTRA.DIHEDRAL.0>
3.62301

>  <SCORE.INTRA.POLAR>
0

>  <SCORE.INTRA.POLAR.0>
0

>  <SCORE.INTRA.REPUL>
0

>  <SCORE.INTRA.REPUL.0>
0

>  <SCORE.INTRA.VDW>
0.224639

>  <SCORE.INTRA.VDW.0>
-0.155044

>  <SCORE.INTRA.norm>
0.0155073

>  <SCORE.RESTR>
0

>  <SCORE.RESTR.CAVITY>
0

>  <SCORE.RESTR.norm>
0

>  <SCORE.SYSTEM>
-1.51082

>  <SCORE.SYSTEM.CONST>
0

>  <SCORE.SYSTEM.DIHEDRAL>
0.329389

>  <SCORE.SYSTEM.POLAR>
-0.502154

>  <SCORE.SYSTEM.VDW>
0.0318101

>  <SCORE.SYSTEM.norm>
-0.0839344

>  <SCORE.heavy>
18

>  <SCORE.norm>
-0.478117

>  <enum_code>
M

>  <enum_smi>
CC(C)(C)OC(=O)[NH+]1CCC(n2cccn2)CC1

>  <sha256>
4334bda058dd8a43ee9d0d9c7bb1edabd8824594d18609c4fee1cb3dfbf32569

>  <std_smi>
CC(C)(C)OC(=O)N1CCC(n2cccn2)CC1

>  <uuid>
deb555d5-ea27-4291-93ef-7c89b1a971c1

$$$$
deb555d5-ea27-4291-93ef-7c89b1a971c1
  rDOCK(R)          3D
libRbt.so/2013.1/901 2013/11/27
 19 20  0  0  0  0  0  0  0  0999 V2000
    0.1367   23.9066    4.2958 C   0  0  0  0  0  0
   -1.2255   24.3415    4.8552 C   0  0  0  0  0  0
   -1.1397   24.3878    6.3844 C   0  0  0  0  0  0
   -2.2955   23.3568    4.3719 C   0  0  0  0  0  0
   -1.4476   25.6682    4.3030 O   0  0  0  0  0  0
   -2.5793   26.3360    4.5746 C   0  0  0  0  0  0
   -3.5901   25.9562    5.1246 O   0  0  0  0  0  0
   -2.6604   27.7257    4.1715 N   0  3  0  0  0  0
   -2.1563   27.9191    2.7825 C   0  0  0  0  0  0
   -2.3906   29.3613    2.3624 C   0  0  0  0  0  0
   -1.7568   30.3241    3.3720 C   0  0  0  0  0  0
   -1.9107   31.7136    2.9722 N   0  0  0  0  0  0
   -1.2423   32.8046    3.4423 C   0  0  0  0  0  0
   -1.7467   33.8816    2.7500 C   0  0  0  0  0  0
   -2.7128   33.3325    1.8881 C   0  0  0  0  0  0
   -2.8127   32.0074    2.0243 N   0  0  0  0  0  0
   -2.2854   30.0709    4.7878 C   0  0  0  0  0  0
   -2.0518   28.6243    5.1927 C   0  0  0  0  0  0
   -3.6829   27.8392    4.1827 H   0  0  0  0  0  0
  1  2  1  0  0  0
  2  3  1  0  0  0
  2  4  1  0  0  0
  2  5  1  0  0  0
  5  6  1  0  0  0
  6  7  2  0  0  0
  6  8  1  0  0  0
  8  9  1  0  0  0
  9 10  1  0  0  0
 10 11  1  0  0  0
 11 12  1  0  0  0
 12 13  1  0  0  0
 13 14  2  0  0  0
 14 15  1  0  0  0
 15 16  2  0  0  0
 11 17  1  0  0  0
 17 18  1  0  0  0
 18  8  1  0  0  0
 16 12  1  0  0  0
  8 19  1  0  0  0
M  END
>  <CHROM.0>
-59.88758699,68.94756280

>  <CHROM.1>
178.58426365,-9.29214248,45.16248847,-164.14803597,-2.00027576,28.31351375
3.90071975,-1.41414319,-1.13858350,-0.12512934

>  <Name>
deb555d5-ea27-4291-93ef-7c89b1a971c1

>  <RI>
2.84071e+07

>  <Rbt.Current_Directory>
/data/work/jku/5V6S/work/40/8dba899c20c42488f2b1a17844994e

>  <Rbt.Executable>
rbdock ($Id: //depot/dev/client3/rdock/2013.1/src/exe/rbdock.cxx#4 $)

>  <Rbt.Library>
libRbt.so (2013.1, Build901 2013/11/27)

>  <Rbt.Parameter_File>
/rDock_2013.1_src/data/scripts/dock.prm

>  <Rbt.Receptor>
docking.prm

>  <SCORE>
-8.41261

>  <SCORE.INTER>
-8.29094

>  <SCORE.INTER.CONST>
1

>  <SCORE.INTER.POLAR>
0

>  <SCORE.INTER.REPUL>
0

>  <SCORE.INTER.ROT>
4

>  <SCORE.INTER.VDW>
-17.6909

>  <SCORE.INTER.norm>
-0.460608

>  <SCORE.INTRA>
1.39199

>  <SCORE.INTRA.DIHEDRAL>
0.614609

>  <SCORE.INTRA.DIHEDRAL.0>
3.62301

>  <SCORE.INTRA.POLAR>
0

>  <SCORE.INTRA.POLAR.0>
0

>  <SCORE.INTRA.REPUL>
0

>  <SCORE.INTRA.REPUL.0>
0

>  <SCORE.INTRA.VDW>
1.08469

>  <SCORE.INTRA.VDW.0>
-0.155044

>  <SCORE.INTRA.norm>
0.0773328

>  <SCORE.RESTR>
0

>  <SCORE.RESTR.CAVITY>
0

>  <SCORE.RESTR.norm>
0

>  <SCORE.SYSTEM>
-1.51366

>  <SCORE.SYSTEM.CONST>
0

>  <SCORE.SYSTEM.DIHEDRAL>
0.395533

>  <SCORE.SYSTEM.POLAR>
-0.502953

>  <SCORE.SYSTEM.VDW>
-0.00138889

>  <SCORE.SYSTEM.norm>
-0.0840923

>  <SCORE.heavy>
18

>  <SCORE.norm>
-0.467367

>  <enum_code>
M

>  <enum_smi>
CC(C)(C)OC(=O)[NH+]1CCC(n2cccn2)CC1

>  <sha256>
4334bda058dd8a43ee9d0d9c7bb1edabd8824594d18609c4fee1cb3dfbf32569

>  <std_smi>
CC(C)(C)OC(=O)N1CCC(n2cccn2)CC1

>  <uuid>
deb555d5-ea27-4291-93ef-7c89b1a971c1

$$$$
deb555d5-ea27-4291-93ef-7c89b1a971c1
  rDOCK(R)          3D
libRbt.so/2013.1/901 2013/11/27
 19 20  0  0  0  0  0  0  0  0999 V2000
   -1.1501   24.4323    6.5092 C   0  0  0  0  0  0
   -1.2428   24.2555    4.9868 C   0  0  0  0  0  0
   -2.4521   23.3713    4.6647 C   0  0  0  0  0  0
    0.0663   23.6409    4.4801 C   0  0  0  0  0  0
   -1.4249   25.6011    4.4668 O   0  0  0  0  0  0
   -2.5313   26.2998    4.7637 C   0  0  0  0  0  0
   -3.5332   25.9522    5.3499 O   0  0  0  0  0  0
   -2.5919   27.6855    4.3433 N   0  3  0  0  0  0
   -2.0681   27.8569    2.9587 C   0  0  0  0  0  0
   -2.2810   29.2965    2.5188 C   0  0  0  0  0  0
   -1.6494   30.2642    3.5252 C   0  0  0  0  0  0
   -1.7828   31.6504    3.1072 N   0  0  0  0  0  0
   -2.5071   32.1506    2.0663 C   0  0  0  0  0  0
   -2.3084   33.5121    2.0899 C   0  0  0  0  0  0
   -1.4497   33.7295    3.1823 C   0  0  0  0  0  0
   -1.1288   32.5915    3.8036 N   0  0  0  0  0  0
   -2.1987   30.0335    4.9369 C   0  0  0  0  0  0
   -1.9863   28.5893    5.3617 C   0  0  0  0  0  0
   -3.6131   27.8103    4.3400 H   0  0  0  0  0  0
  1  2  1  0  0  0
  2  3  1  0  0  0
  2  4  1  0  0  0
  2  5  1  0  0  0
  5  6  1  0  0  0
  6  7  2  0  0  0
  6  8  1  0  0  0
  8  9  1  0  0  0
  9 10  1  0  0  0
 10 11  1  0  0  0
 11 12  1  0  0  0
 12 13  1  0  0  0
 13 14  2  0  0  0
 14 15  1  0  0  0
 15 16  2  0  0  0
 11 17  1  0  0  0
 17 18  1  0  0  0
 18  8  1  0  0  0
 16 12  1  0  0  0
  8 19  1  0  0  0
M  END
>  <CHROM.0>
-59.88758699,69.72419069

>  <CHROM.1>
-64.50894622,-6.76450261,42.54179075,8.37757013,-1.90734270,28.27094004,4.09874347
-0.09380147,-1.53823204,1.21755891

>  <Name>
deb555d5-ea27-4291-93ef-7c89b1a971c1

>  <RI>
2.84071e+07

>  <Rbt.Current_Directory>
/data/work/jku/5V6S/work/40/8dba899c20c42488f2b1a17844994e

>  <Rbt.Executable>
rbdock ($Id: //depot/dev/client3/rdock/2013.1/src/exe/rbdock.cxx#4 $)

>  <Rbt.Library>
libRbt.so (2013.1, Build901 2013/11/27)

>  <Rbt.Parameter_File>
/rDock_2013.1_src/data/scripts/dock.prm

>  <Rbt.Receptor>
docking.prm

>  <SCORE>
-7.3727

>  <SCORE.INTER>
-8.57779

>  <SCORE.INTER.CONST>
1

>  <SCORE.INTER.POLAR>
0

>  <SCORE.INTER.REPUL>
0

>  <SCORE.INTER.ROT>
4

>  <SCORE.INTER.VDW>
-17.9778

>  <SCORE.INTER.norm>
-0.476544

>  <SCORE.INTRA>
2.71565

>  <SCORE.INTRA.DIHEDRAL>
0.420733

>  <SCORE.INTRA.DIHEDRAL.0>
3.62301

>  <SCORE.INTRA.POLAR>
0

>  <SCORE.INTRA.POLAR.0>
0

>  <SCORE.INTRA.REPUL>
0

>  <SCORE.INTRA.REPUL.0>
0

>  <SCORE.INTRA.VDW>
2.50528

>  <SCORE.INTRA.VDW.0>
-0.155044

>  <SCORE.INTRA.norm>
0.150869

>  <SCORE.RESTR>
0

>  <SCORE.RESTR.CAVITY>
0

>  <SCORE.RESTR.norm>
0

>  <SCORE.SYSTEM>
-1.51056

>  <SCORE.SYSTEM.CONST>
0

>  <SCORE.SYSTEM.DIHEDRAL>
0.464271

>  <SCORE.SYSTEM.POLAR>
-0.503218

>  <SCORE.SYSTEM.VDW>
-0.0317532

>  <SCORE.SYSTEM.norm>
-0.0839199

>  <SCORE.heavy>
18

>  <SCORE.norm>
-0.409594

>  <enum_code>
M

>  <enum_smi>
CC(C)(C)OC(=O)[NH+]1CCC(n2cccn2)CC1

>  <sha256>
4334bda058dd8a43ee9d0d9c7bb1edabd8824594d18609c4fee1cb3dfbf32569

>  <std_smi>
CC(C)(C)OC(=O)N1CCC(n2cccn2)CC1

>  <uuid>
deb555d5-ea27-4291-93ef-7c89b1a971c1

$$$$
d88fc1f2-2ea1-4945-9bbb-5405046db2d0
  rDOCK(R)          3D
libRbt.so/2013.1/901 2013/11/27
 19 20  0  0  0  0  0  0  0  0999 V2000
   -0.0167   24.8045    6.3531 C   0  0  0  0  0  0
   -0.7221   24.6471    5.0017 C   0  0  0  0  0  0
   -2.0643   23.9195    5.1349 C   0  0  0  0  0  0
    0.1859   23.8335    4.0666 C   0  0  0  0  0  0
   -0.8793   25.9279    4.3357 O   0  0  0  0  0  0
   -1.6208   26.9180    4.8912 C   0  0  0  0  0  0
   -2.1473   26.8651    5.9940 O   0  0  0  0  0  0
   -1.7129   28.0276    4.0614 N   0  0  0  0  0  0
   -2.4003   29.2119    4.5559 C   0  0  0  0  0  0
   -1.8499   30.4761    3.9181 C   0  0  0  0  0  0
   -1.9948   30.4237    2.3967 C   0  0  0  0  0  0
   -1.0698   31.3675    1.7499 N   0  0  0  0  0  0
   -0.5960   32.6283    2.1608 C   0  0  0  0  0  0
    0.3011   33.1704    1.1664 C   0  0  0  0  0  0
    0.3782   32.1985    0.1001 C   0  0  0  0  0  0
   -0.4228   31.0904    0.3871 N   0  3  0  0  0  0
   -1.8657   29.0165    1.8048 C   0  0  0  0  0  0
   -1.1184   28.0663    2.7297 C   0  0  0  0  0  0
   -0.5718   30.2496   -0.1741 H   0  0  0  0  0  0
  1  2  1  0  0  0
  2  3  1  0  0  0
  2  4  1  0  0  0
  2  5  1  0  0  0
  5  6  1  0  0  0
  6  7  2  0  0  0
  6  8  1  0  0  0
  8  9  1  0  0  0
  9 10  1  0  0  0
 10 11  1  0  0  0
 11 12  1  0  0  0
 12 13  1  0  0  0
 13 14  2  0  0  0
 14 15  1  0  0  0
 15 16  2  0  0  0
 11 17  1  0  0  0
 17 18  1  0  0  0
 18  8  1  0  0  0
 16 12  1  0  0  0
 16 19  1  0  0  0
M  END
>  <CHROM.0>
-59.88758699,68.38413024

>  <CHROM.1>
-62.23376441,4.17091241,-33.53325404,-1.09731206,28.38517697,3.41959420,-1.66113548
0.92083516,-0.43600331

>  <Name>
d88fc1f2-2ea1-4945-9bbb-5405046db2d0

>  <RI>
1.39809e+07

>  <Rbt.Current_Directory>
/data/work/jku/5V6S/work/40/8dba899c20c42488f2b1a17844994e

>  <Rbt.Executable>
rbdock ($Id: //depot/dev/client3/rdock/2013.1/src/exe/rbdock.cxx#4 $)

>  <Rbt.Library>
libRbt.so (2013.1, Build901 2013/11/27)

>  <Rbt.Parameter_File>
/rDock_2013.1_src/data/scripts/dock.prm

>  <Rbt.Receptor>
docking.prm

>  <SCORE>
-18.1043

>  <SCORE.INTER>
-17.3086

>  <SCORE.INTER.CONST>
1

>  <SCORE.INTER.POLAR>
-1.40254

>  <SCORE.INTER.REPUL>
0

>  <SCORE.INTER.ROT>
3

>  <SCORE.INTER.VDW>
-20.94

>  <SCORE.INTER.norm>
-0.96159

>  <SCORE.INTRA>
0.716641

>  <SCORE.INTRA.DIHEDRAL>
0.12489

>  <SCORE.INTRA.DIHEDRAL.0>
2.43287

>  <SCORE.INTRA.POLAR>
0

>  <SCORE.INTRA.POLAR.0>
0

>  <SCORE.INTRA.REPUL>
0

>  <SCORE.INTRA.REPUL.0>
0

>  <SCORE.INTRA.VDW>
0.654196

>  <SCORE.INTRA.VDW.0>
-0.0980245

>  <SCORE.INTRA.norm>
0.0398134

>  <SCORE.RESTR>
0

>  <SCORE.RESTR.CAVITY>
0

>  <SCORE.RESTR.norm>
0

>  <SCORE.SYSTEM>
-1.51236

>  <SCORE.SYSTEM.CONST>
0

>  <SCORE.SYSTEM.DIHEDRAL>
0.348981

>  <SCORE.SYSTEM.POLAR>
-0.502455

>  <SCORE.SYSTEM.VDW>
0.0215013

>  <SCORE.SYSTEM.norm>
-0.0840198

>  <SCORE.heavy>
18

>  <SCORE.norm>
-1.0058

>  <enum_code>
M

>  <enum_smi>
CC(C)(C)OC(=O)N1CCC(n2ccc[nH+]2)CC1

>  <sha256>
4334bda058dd8a43ee9d0d9c7bb1edabd8824594d18609c4fee1cb3dfbf32569

>  <std_smi>
CC(C)(C)OC(=O)N1CCC(n2cccn2)CC1

>  <uuid>
d88fc1f2-2ea1-4945-9bbb-5405046db2d0

$$$$
d88fc1f2-2ea1-4945-9bbb-5405046db2d0
  rDOCK(R)          3D
libRbt.so/2013.1/901 2013/11/27
 19 20  0  0  0  0  0  0  0  0999 V2000
   -4.2719   30.7536    4.6824 C   0  0  0  0  0  0
   -2.8215   30.7221    4.1887 C   0  0  0  0  0  0
   -1.9363   31.7223    4.9401 C   0  0  0  0  0  0
   -2.8044   31.0786    2.6943 C   0  0  0  0  0  0
   -2.2716   29.3795    4.2507 O   0  0  0  0  0  0
   -2.0947   28.7511    5.4392 C   0  0  0  0  0  0
   -2.3316   29.2423    6.5341 O   0  0  0  0  0  0
   -1.6147   27.4580    5.2780 N   0  0  0  0  0  0
   -1.4603   26.6204    6.4587 C   0  0  0  0  0  0
   -1.6198   25.1489    6.1162 C   0  0  0  0  0  0
   -0.5887   24.7200    5.0715 C   0  0  0  0  0  0
   -1.0150   23.4877    4.3902 N   0  0  0  0  0  0
   -2.1997   22.7338    4.4956 C   0  0  0  0  0  0
   -2.1415   21.5907    3.6139 C   0  0  0  0  0  0
   -0.8643   21.6478    2.9407 C   0  0  0  0  0  0
   -0.1370   22.7637    3.3618 N   0  3  0  0  0  0
   -0.2220   25.8181    4.0679 C   0  0  0  0  0  0
   -1.2937   26.8946    3.9712 C   0  0  0  0  0  0
    0.7936   23.0660    3.0671 H   0  0  0  0  0  0
  1  2  1  0  0  0
  2  3  1  0  0  0
  2  4  1  0  0  0
  2  5  1  0  0  0
  5  6  1  0  0  0
  6  7  2  0  0  0
  6  8  1  0  0  0
  8  9  1  0  0  0
  9 10  1  0  0  0
 10 11  1  0  0  0
 11 12  1  0  0  0
 12 13  1  0  0  0
 13 14  2  0  0  0
 14 15  1  0  0  0
 15 16  2  0  0  0
 11 17  1  0  0  0
 17 18  1  0  0  0
 18  8  1  0  0  0
 16 12  1  0  0  0
 16 19  1  0  0  0
M  END
>  <CHROM.0>
-59.88758699,68.74612450

>  <CHROM.1>
-65.05772771,-2.20405939,4.12719785,-1.76768076,26.79267531,4.58914430,2.75805647
-1.35225370,1.25877542

>  <Name>
d88fc1f2-2ea1-4945-9bbb-5405046db2d0

>  <RI>
1.39809e+07

>  <Rbt.Current_Directory>
/data/work/jku/5V6S/work/40/8dba899c20c42488f2b1a17844994e

>  <Rbt.Executable>
rbdock ($Id: //depot/dev/client3/rdock/2013.1/src/exe/rbdock.cxx#4 $)

>  <Rbt.Library>
libRbt.so (2013.1, Build901 2013/11/27)

>  <Rbt.Parameter_File>
/rDock_2013.1_src/data/scripts/dock.prm

>  <Rbt.Receptor>
docking.prm

>  <SCORE>
-9.9953

>  <SCORE.INTER>
-9.0762

>  <SCORE.INTER.CONST>
1

>  <SCORE.INTER.POLAR>
0

>  <SCORE.INTER.REPUL>
0

>  <SCORE.INTER.ROT>
3

>  <SCORE.INTER.VDW>
-17.4762

>  <SCORE.INTER.norm>
-0.504233

>  <SCORE.INTRA>
0.594122

>  <SCORE.INTRA.DIHEDRAL>
0.0556903

>  <SCORE.INTRA.DIHEDRAL.0>
2.43287

>  <SCORE.INTRA.POLAR>
0

>  <SCORE.INTRA.POLAR.0>
0

>  <SCORE.INTRA.REPUL>
0

>  <SCORE.INTRA.REPUL.0>
0

>  <SCORE.INTRA.VDW>
0.566277

>  <SCORE.INTRA.VDW.0>
-0.0980245

>  <SCORE.INTRA.norm>
0.0330068

>  <SCORE.RESTR>
0.000314658

>  <SCORE.RESTR.CAVITY>
0.000314658

>  <SCORE.RESTR.norm>
1.7481e-05

>  <SCORE.SYSTEM>
-1.51354

>  <SCORE.SYSTEM.CONST>
0

>  <SCORE.SYSTEM.DIHEDRAL>
0.378566

>  <SCORE.SYSTEM.POLAR>
-0.502805

>  <SCORE.SYSTEM.VDW>
0.00671056

>  <SCORE.SYSTEM.norm>
-0.0840857

>  <SCORE.heavy>
18

>  <SCORE.norm>
-0.555294

>  <enum_code>
M

>  <enum_smi>
CC(C)(C)OC(=O)N1CCC(n2ccc[nH+]2)CC1

>  <sha256>
4334bda058dd8a43ee9d0d9c7bb1edabd8824594d18609c4fee1cb3dfbf32569

>  <std_smi>
CC(C)(C)OC(=O)N1CCC(n2cccn2)CC1

>  <uuid>
d88fc1f2-2ea1-4945-9bbb-5405046db2d0

$$$$
d88fc1f2-2ea1-4945-9bbb-5405046db2d0
  rDOCK(R)          3D
libRbt.so/2013.1/901 2013/11/27
 19 20  0  0  0  0  0  0  0  0999 V2000
   -0.1361   24.7406    6.4344 C   0  0  0  0  0  0
   -0.7922   24.5937    5.0573 C   0  0  0  0  0  0
   -2.1333   23.8563    5.1348 C   0  0  0  0  0  0
    0.1537   23.7964    4.1462 C   0  0  0  0  0  0
   -0.9343   25.8808    4.4001 O   0  0  0  0  0  0
   -1.7151   26.8541    4.9310 C   0  0  0  0  0  0
   -2.2867   26.7837    6.0101 O   0  0  0  0  0  0
   -1.7910   27.9686    4.1060 N   0  0  0  0  0  0
   -2.5185   29.1373    4.5798 C   0  0  0  0  0  0
   -1.9632   30.4156    3.9749 C   0  0  0  0  0  0
   -2.0430   30.3729    2.4484 C   0  0  0  0  0  0
   -1.1077   31.3370    1.8480 N   0  0  0  0  0  0
   -0.6763   32.6040    2.2856 C   0  0  0  0  0  0
    0.2542   33.1678    1.3350 C   0  0  0  0  0  0
    0.3970   32.2033    0.2687 C   0  0  0  0  0  0
   -0.3952   31.0792    0.5145 N   0  3  0  0  0  0
   -1.8653   28.9727    1.8522 C   0  0  0  0  0  0
   -1.1417   28.0277    2.8010 C   0  0  0  0  0  0
   -0.5033   30.2388   -0.0567 H   0  0  0  0  0  0
  1  2  1  0  0  0
  2  3  1  0  0  0
  2  4  1  0  0  0
  2  5  1  0  0  0
  5  6  1  0  0  0
  6  7  2  0  0  0
  6  8  1  0  0  0
  8  9  1  0  0  0
  9 10  1  0  0  0
 10 11  1  0  0  0
 11 12  1  0  0  0
 12 13  1  0  0  0
 13 14  2  0  0  0
 14 15  1  0  0  0
 15 16  2  0  0  0
 11 17  1  0  0  0
 17 18  1  0  0  0
 18  8  1  0  0  0
 16 12  1  0  0  0
 16 19  1  0  0  0
M  END
>  <CHROM.0>
-59.88758699,68.53428577

>  <CHROM.1>
-63.07974035,4.67163174,-33.77083137,-1.15747953,28.34017742,3.49187213,-1.66668233
0.87757417,-0.42313558

>  <Name>
d88fc1f2-2ea1-4945-9bbb-5405046db2d0

>  <RI>
1.39809e+07

>  <Rbt.Current_Directory>
/data/work/jku/5V6S/work/40/8dba899c20c42488f2b1a17844994e

>  <Rbt.Executable>
rbdock ($Id: //depot/dev/client3/rdock/2013.1/src/exe/rbdock.cxx#4 $)

>  <Rbt.Library>
libRbt.so (2013.1, Build901 2013/11/27)

>  <Rbt.Parameter_File>
/rDock_2013.1_src/data/scripts/dock.prm

>  <Rbt.Receptor>
docking.prm

>  <SCORE>
-18.0755

>  <SCORE.INTER>
-17.2835

>  <SCORE.INTER.CONST>
1

>  <SCORE.INTER.POLAR>
-1.40312

>  <SCORE.INTER.REPUL>
0

>  <SCORE.INTER.ROT>
3

>  <SCORE.INTER.VDW>
-20.9129

>  <SCORE.INTER.norm>
-0.960196

>  <SCORE.INTRA>
0.721006

>  <SCORE.INTRA.DIHEDRAL>
0.152344

>  <SCORE.INTRA.DIHEDRAL.0>
2.43287

>  <SCORE.INTRA.POLAR>
0

>  <SCORE.INTRA.POLAR.0>
0

>  <SCORE.INTRA.REPUL>
0

>  <SCORE.INTRA.REPUL.0>
0

>  <SCORE.INTRA.VDW>
0.644834

>  <SCORE.INTRA.VDW.0>
-0.0980245

>  <SCORE.INTRA.norm>
0.0400559

>  <SCORE.RESTR>
0

>  <SCORE.RESTR.CAVITY>
0

>  <SCORE.RESTR.norm>
0

>  <SCORE.SYSTEM>
-1.513

>  <SCORE.SYSTEM.CONST>
0

>  <SCORE.SYSTEM.DIHEDRAL>
0.361112

>  <SCORE.SYSTEM.POLAR>
-0.502613

>  <SCORE.SYSTEM.VDW>
0.0153291

>  <SCORE.SYSTEM.norm>
-0.0840555

>  <SCORE.heavy>
18

>  <SCORE.norm>
-1.0042

>  <enum_code>
M

>  <enum_smi>
CC(C)(C)OC(=O)N1CCC(n2ccc[nH+]2)CC1

>  <sha256>
4334bda058dd8a43ee9d0d9c7bb1edabd8824594d18609c4fee1cb3dfbf32569

>  <std_smi>
CC(C)(C)OC(=O)N1CCC(n2cccn2)CC1

>  <uuid>
d88fc1f2-2ea1-4945-9bbb-5405046db2d0

$$$$
d88fc1f2-2ea1-4945-9bbb-5405046db2d0
  rDOCK(R)          3D
libRbt.so/2013.1/901 2013/11/27
 19 20  0  0  0  0  0  0  0  0999 V2000
   -4.2227   30.7326    4.8573 C   0  0  0  0  0  0
   -2.8244   30.7072    4.2307 C   0  0  0  0  0  0
   -1.8909   31.7439    4.8650 C   0  0  0  0  0  0
   -2.9535   31.0163    2.7312 C   0  0  0  0  0  0
   -2.2472   29.3756    4.2812 O   0  0  0  0  0  0
   -1.9893   28.7704    5.4670 C   0  0  0  0  0  0
   -2.1590   29.2801    6.5658 O   0  0  0  0  0  0
   -1.5108   27.4777    5.2985 N   0  0  0  0  0  0
   -1.2742   26.6630    6.4816 C   0  0  0  0  0  0
   -1.4441   25.1845    6.1766 C   0  0  0  0  0  0
   -0.4791   24.7431    5.0755 C   0  0  0  0  0  0
   -0.9389   23.4957    4.4454 N   0  0  0  0  0  0
   -2.1786   22.8304    4.5050 C   0  0  0  0  0  0
   -2.1350   21.6257    3.7086 C   0  0  0  0  0  0
   -0.8098   21.5507    3.1379 C   0  0  0  0  0  0
   -0.0392   22.6440    3.5412 N   0  3  0  0  0  0
   -0.1863   25.8249    4.0307 C   0  0  0  0  0  0
   -1.2702   26.8924    3.9840 C   0  0  0  0  0  0
    0.9301   22.8628    3.3027 H   0  0  0  0  0  0
  1  2  1  0  0  0
  2  3  1  0  0  0
  2  4  1  0  0  0
  2  5  1  0  0  0
  5  6  1  0  0  0
  6  7  2  0  0  0
  6  8  1  0  0  0
  8  9  1  0  0  0
  9 10  1  0  0  0
 10 11  1  0  0  0
 11 12  1  0  0  0
 12 13  1  0  0  0
 13 14  2  0  0  0
 14 15  1  0  0  0
 15 16  2  0  0  0
 11 17  1  0  0  0
 17 18  1  0  0  0
 18  8  1  0  0  0
 16 12  1  0  0  0
 16 19  1  0  0  0
M  END
>  <CHROM.0>
-59.88758699,-62.73592251

>  <CHROM.1>
-62.87871276,-2.91123054,13.82198909,-1.70430722,26.79301216,4.63869092,2.38877086
-1.28289237,0.86984788

>  <Name>
d88fc1f2-2ea1-4945-9bbb-5405046db2d0

>  <RI>
1.39809e+07

>  <Rbt.Current_Directory>
/data/work/jku/5V6S/work/40/8dba899c20c42488f2b1a17844994e

>  <Rbt.Executable>
rbdock ($Id: //depot/dev/client3/rdock/2013.1/src/exe/rbdock.cxx#4 $)

>  <Rbt.Library>
libRbt.so (2013.1, Build901 2013/11/27)

>  <Rbt.Parameter_File>
/rDock_2013.1_src/data/scripts/dock.prm

>  <Rbt.Receptor>
docking.prm

>  <SCORE>
-7.49133

>  <SCORE.INTER>
-8.99224

>  <SCORE.INTER.CONST>
1

>  <SCORE.INTER.POLAR>
0

>  <SCORE.INTER.REPUL>
0

>  <SCORE.INTER.ROT>
3

>  <SCORE.INTER.VDW>
-17.3922

>  <SCORE.INTER.norm>
-0.499569

>  <SCORE.INTRA>
0.479125

>  <SCORE.INTRA.DIHEDRAL>
0.0526762

>  <SCORE.INTRA.DIHEDRAL.0>
2.43287

>  <SCORE.INTRA.POLAR>
0

>  <SCORE.INTRA.POLAR.0>
0

>  <SCORE.INTRA.REPUL>
0

>  <SCORE.INTRA.REPUL.0>
0

>  <SCORE.INTRA.VDW>
0.452787

>  <SCORE.INTRA.VDW.0>
-0.0980245

>  <SCORE.INTRA.norm>
0.0266181

>  <SCORE.RESTR>
0

>  <SCORE.RESTR.CAVITY>
0

>  <SCORE.RESTR.norm>
0

>  <SCORE.SYSTEM>
1.02178

>  <SCORE.SYSTEM.CONST>
0

>  <SCORE.SYSTEM.DIHEDRAL>
0.0445065

>  <SCORE.SYSTEM.REPUL>
0.142208

>  <SCORE.SYSTEM.VDW>
0.288486

>  <SCORE.SYSTEM.norm>
0.0567654

>  <SCORE.heavy>
18

>  <SCORE.norm>
-0.416185

>  <enum_code>
M

>  <enum_smi>
CC(C)(C)OC(=O)N1CCC(n2ccc[nH+]2)CC1

>  <sha256>
4334bda058dd8a43ee9d0d9c7bb1edabd8824594d18609c4fee1cb3dfbf32569

>  <std_smi>
CC(C)(C)OC(=O)N1CCC(n2cccn2)CC1

>  <uuid>
d88fc1f2-2ea1-4945-9bbb-5405046db2d0

$$$$
d88fc1f2-2ea1-4945-9bbb-5405046db2d0
  rDOCK(R)          3D
libRbt.so/2013.1/901 2013/11/27
 19 20  0  0  0  0  0  0  0  0999 V2000
   -0.0207   24.7806    6.3509 C   0  0  0  0  0  0
   -0.7325   24.6151    5.0038 C   0  0  0  0  0  0
   -2.0742   23.8888    5.1476 C   0  0  0  0  0  0
    0.1709   23.7956    4.0695 C   0  0  0  0  0  0
   -0.8924   25.8919    4.3307 O   0  0  0  0  0  0
   -1.6452   26.8794    4.8755 C   0  0  0  0  0  0
   -2.1863   26.8253    5.9711 O   0  0  0  0  0  0
   -1.7307   27.9880    4.0435 N   0  0  0  0  0  0
   -2.4293   29.1699    4.5278 C   0  0  0  0  0  0
   -1.8755   30.4359    3.8964 C   0  0  0  0  0  0
   -1.9998   30.3817    2.3731 C   0  0  0  0  0  0
   -1.0700   31.3286    1.7380 N   0  0  0  0  0  0
   -0.5820   32.5772    2.1690 C   0  0  0  0  0  0
    0.3141   33.1292    1.1791 C   0  0  0  0  0  0
    0.3757   32.1764    0.0947 C   0  0  0  0  0  0
   -0.4338   31.0707    0.3664 N   0  3  0  0  0  0
   -1.8571   28.9745    1.7842 C   0  0  0  0  0  0
   -1.1185   28.0281    2.7199 C   0  0  0  0  0  0
   -0.5940   30.2417   -0.2092 H   0  0  0  0  0  0
  1  2  1  0  0  0
  2  3  1  0  0  0
  2  4  1  0  0  0
  2  5  1  0  0  0
  5  6  1  0  0  0
  6  7  2  0  0  0
  6  8  1  0  0  0
  8  9  1  0  0  0
  9 10  1  0  0  0
 10 11  1  0  0  0
 11 12  1  0  0  0
 12 13  1  0  0  0
 13 14  2  0  0  0
 14 15  1  0  0  0
 15 16  2  0  0  0
 11 17  1  0  0  0
 17 18  1  0  0  0
 18  8  1  0  0  0
 16 12  1  0  0  0
 16 19  1  0  0  0
M  END
>  <CHROM.0>
-59.88758699,-62.04264801

>  <CHROM.1>
-63.09693382,3.79419520,-31.79145106,-1.10724728,28.34892375,3.41014753,-1.66328186
0.90949605,-0.43591195

>  <Name>
d88fc1f2-2ea1-4945-9bbb-5405046db2d0

>  <RI>
1.39809e+07

>  <Rbt.Current_Directory>
/data/work/jku/5V6S/work/40/8dba899c20c42488f2b1a17844994e

>  <Rbt.Executable>
rbdock ($Id: //depot/dev/client3/rdock/2013.1/src/exe/rbdock.cxx#4 $)

>  <Rbt.Library>
libRbt.so (2013.1, Build901 2013/11/27)

>  <Rbt.Parameter_File>
/rDock_2013.1_src/data/scripts/dock.prm

>  <Rbt.Receptor>
docking.prm

>  <SCORE>
-15.5549

>  <SCORE.INTER>
-17.2747

>  <SCORE.INTER.CONST>
1

>  <SCORE.INTER.POLAR>
-1.40312

>  <SCORE.INTER.REPUL>
0

>  <SCORE.INTER.ROT>
3

>  <SCORE.INTER.VDW>
-20.9041

>  <SCORE.INTER.norm>
-0.959706

>  <SCORE.INTRA>
0.698051

>  <SCORE.INTRA.DIHEDRAL>
0.103176

>  <SCORE.INTRA.DIHEDRAL.0>
2.43287

>  <SCORE.INTRA.POLAR>
0

>  <SCORE.INTRA.POLAR.0>
0

>  <SCORE.INTRA.REPUL>
0

>  <SCORE.INTRA.REPUL.0>
0

>  <SCORE.INTRA.VDW>
0.646463

>  <SCORE.INTRA.VDW.0>
-0.0980245

>  <SCORE.INTRA.norm>
0.0387806

>  <SCORE.RESTR>
0

>  <SCORE.RESTR.CAVITY>
0

>  <SCORE.RESTR.norm>
0

>  <SCORE.SYSTEM>
1.02173

>  <SCORE.SYSTEM.CONST>
0

>  <SCORE.SYSTEM.DIHEDRAL>
0.0282017

>  <SCORE.SYSTEM.REPUL>
0.136987

>  <SCORE.SYSTEM.VDW>
0.3227

>  <SCORE.SYSTEM.norm>
0.056763

>  <SCORE.heavy>
18

>  <SCORE.norm>
-0.864162

>  <enum_code>
M

>  <enum_smi>
CC(C)(C)OC(=O)N1CCC(n2ccc[nH+]2)CC1

>  <sha256>
4334bda058dd8a43ee9d0d9c7bb1edabd8824594d18609c4fee1cb3dfbf32569

>  <std_smi>
CC(C)(C)OC(=O)N1CCC(n2cccn2)CC1

>  <uuid>
d88fc1f2-2ea1-4945-9bbb-5405046db2d0

$$$$
1c1af6de-9834-44c0-9996-c604ad38ac88
  rDOCK(R)          3D
libRbt.so/2013.1/901 2013/11/27
 20 21  0  0  0  0  0  0  0  0999 V2000
   -0.6008   32.9494    2.8131 C   0  0  0  0  0  0
   -2.0095   32.3950    2.5763 C   0  0  0  0  0  0
   -2.1932   32.1332    1.0746 C   0  0  0  0  0  0
   -3.0949   33.3697    3.0451 C   0  0  0  0  0  0
   -2.1710   31.0907    3.2025 O   0  0  0  0  0  0
   -2.0118   30.9555    4.5275 C   0  0  0  0  0  0
   -1.6323   31.7525    5.3553 O   0  0  0  0  0  0
   -2.3247   29.6631    5.1148 N   0  3  0  0  0  0
   -3.7923   29.4937    5.3192 C   0  0  0  0  0  0
   -4.1147   28.0177    5.4835 C   0  0  0  0  0  0
   -3.7500   27.2396    4.2142 C   0  0  0  0  0  0
   -3.6595   25.7989    4.4783 N   0  0  0  0  0  0
   -2.8212   25.0362    5.3209 C   0  0  0  0  0  0
   -3.1429   23.6300    5.2217 C   0  0  0  0  0  0
   -4.2293   23.5034    4.2786 C   0  0  0  0  0  0
   -4.6004   24.7580    3.7853 N   0  3  0  0  0  0
   -2.4877   27.7688    3.5203 C   0  0  0  0  0  0
   -1.5844   28.5412    4.4692 C   0  0  0  0  0  0
   -1.8909   29.8330    6.0361 H   0  0  0  0  0  0
   -5.3370   24.9742    3.1087 H   0  0  0  0  0  0
  1  2  1  0  0  0
  2  3  1  0  0  0
  2  4  1  0  0  0
  2  5  1  0  0  0
  5  6  1  0  0  0
  6  7  2  0  0  0
  6  8  1  0  0  0
  8  9  1  0  0  0
  9 10  1  0  0  0
 10 11  1  0  0  0
 11 12  1  0  0  0
 12 13  1  0  0  0
 13 14  2  0  0  0
 14 15  1  0  0  0
 15 16  2  0  0  0
 11 17  1  0  0  0
 17 18  1  0  0  0
 18  8  1  0  0  0
 16 12  1  0  0  0
  8 19  1  0  0  0
 16 20  1  0  0  0
M  END
>  <CHROM.0>
-59.88758699,68.15128268

>  <CHROM.1>
59.80876208,-6.76822909,-80.18597342,-61.88879422,-2.77404195,28.87842483
4.08336830,0.61331095,-1.28611521,-1.13733916

>  <Name>
1c1af6de-9834-44c0-9996-c604ad38ac88

>  <RI>
4.06459e+07

>  <Rbt.Current_Directory>
/data/work/jku/5V6S/work/40/8dba899c20c42488f2b1a17844994e

>  <Rbt.Executable>
rbdock ($Id: //depot/dev/client3/rdock/2013.1/src/exe/rbdock.cxx#4 $)

>  <Rbt.Library>
libRbt.so (2013.1, Build901 2013/11/27)

>  <Rbt.Parameter_File>
/rDock_2013.1_src/data/scripts/dock.prm

>  <Rbt.Receptor>
docking.prm

>  <SCORE>
-8.43633

>  <SCORE.INTER>
-7.23282

>  <SCORE.INTER.CONST>
1

>  <SCORE.INTER.POLAR>
0

>  <SCORE.INTER.REPUL>
0.0630612

>  <SCORE.INTER.ROT>
4

>  <SCORE.INTER.VDW>
-16.9481

>  <SCORE.INTER.norm>
-0.401823

>  <SCORE.INTRA>
0.307421

>  <SCORE.INTRA.DIHEDRAL>
0.352682

>  <SCORE.INTRA.DIHEDRAL.0>
3.62425

>  <SCORE.INTRA.POLAR>
0

>  <SCORE.INTRA.POLAR.0>
0

>  <SCORE.INTRA.REPUL>
0

>  <SCORE.INTRA.REPUL.0>
0

>  <SCORE.INTRA.VDW>
0.13108

>  <SCORE.INTRA.VDW.0>
-0.725153

>  <SCORE.INTRA.norm>
0.017079

>  <SCORE.RESTR>
0

>  <SCORE.RESTR.CAVITY>
0

>  <SCORE.RESTR.norm>
0

>  <SCORE.SYSTEM>
-1.51093

>  <SCORE.SYSTEM.CONST>
0

>  <SCORE.SYSTEM.DIHEDRAL>
0.330569

>  <SCORE.SYSTEM.POLAR>
-0.502174

>  <SCORE.SYSTEM.VDW>
0.0311768

>  <SCORE.SYSTEM.norm>
-0.0839405

>  <SCORE.heavy>
18

>  <SCORE.norm>
-0.468685

>  <enum_code>
M

>  <enum_smi>
CC(C)(C)OC(=O)[NH+]1CCC(n2ccc[nH+]2)CC1

>  <sha256>
4334bda058dd8a43ee9d0d9c7bb1edabd8824594d18609c4fee1cb3dfbf32569

>  <std_smi>
CC(C)(C)OC(=O)N1CCC(n2cccn2)CC1

>  <uuid>
1c1af6de-9834-44c0-9996-c604ad38ac88

$$$$
1c1af6de-9834-44c0-9996-c604ad38ac88
  rDOCK(R)          3D
libRbt.so/2013.1/901 2013/11/27
 20 21  0  0  0  0  0  0  0  0999 V2000
   -2.6155   23.3594    5.1552 C   0  0  0  0  0  0
   -1.4586   24.3609    5.2372 C   0  0  0  0  0  0
   -0.3003   23.8525    4.3670 C   0  0  0  0  0  0
   -0.9566   24.5399    6.6739 C   0  0  0  0  0  0
   -1.8304   25.6397    4.6492 O   0  0  0  0  0  0
   -2.9368   26.2751    5.0634 C   0  0  0  0  0  0
   -3.8833   25.8657    5.6968 O   0  0  0  0  0  0
   -3.0754   27.6803    4.7181 N   0  3  0  0  0  0
   -2.0229   28.5122    5.3697 C   0  0  0  0  0  0
   -1.9082   29.8436    4.6460 C   0  0  0  0  0  0
   -1.4715   29.6333    3.1919 C   0  0  0  0  0  0
   -1.7469   30.8205    2.3743 N   0  0  0  0  0  0
   -2.9247   31.5641    2.1419 C   0  0  0  0  0  0
   -2.6618   32.6675    1.2451 C   0  0  0  0  0  0
   -1.2603   32.6162    0.9005 C   0  0  0  0  0  0
   -0.6372   31.5379    1.5359 N   0  3  0  0  0  0
   -2.0567   28.3627    2.5608 C   0  0  0  0  0  0
   -3.3221   27.8956    3.2634 C   0  0  0  0  0  0
   -3.9662   27.8462    5.2130 H   0  0  0  0  0  0
    0.3454   31.2576    1.4793 H   0  0  0  0  0  0
  1  2  1  0  0  0
  2  3  1  0  0  0
  2  4  1  0  0  0
  2  5  1  0  0  0
  5  6  1  0  0  0
  6  7  2  0  0  0
  6  8  1  0  0  0
  8  9  1  0  0  0
  9 10  1  0  0  0
 10 11  1  0  0  0
 11 12  1  0  0  0
 12 13  1  0  0  0
 13 14  2  0  0  0
 14 15  1  0  0  0
 15 16  2  0  0  0
 11 17  1  0  0  0
 17 18  1  0  0  0
 18  8  1  0  0  0
 16 12  1  0  0  0
  8 19  1  0  0  0
 16 20  1  0  0  0
M  END
>  <CHROM.0>
-59.88758699,68.58483745

>  <CHROM.1>
53.75268802,-16.30424350,-64.60090679,-54.53110154,-2.05819828,27.97006708
3.86791795,1.58422277,-0.49735075,2.68158688

>  <Name>
1c1af6de-9834-44c0-9996-c604ad38ac88

>  <RI>
4.06459e+07

>  <Rbt.Current_Directory>
/data/work/jku/5V6S/work/40/8dba899c20c42488f2b1a17844994e

>  <Rbt.Executable>
rbdock ($Id: //depot/dev/client3/rdock/2013.1/src/exe/rbdock.cxx#4 $)

>  <Rbt.Library>
libRbt.so (2013.1, Build901 2013/11/27)

>  <Rbt.Parameter_File>
/rDock_2013.1_src/data/scripts/dock.prm

>  <Rbt.Receptor>
docking.prm

>  <SCORE>
-8.03444

>  <SCORE.INTER>
-8.027

>  <SCORE.INTER.CONST>
1

>  <SCORE.INTER.POLAR>
0

>  <SCORE.INTER.REPUL>
0

>  <SCORE.INTER.ROT>
4

>  <SCORE.INTER.VDW>
-17.427

>  <SCORE.INTER.norm>
-0.445945

>  <SCORE.INTRA>
1.50573

>  <SCORE.INTRA.DIHEDRAL>
2.16546

>  <SCORE.INTRA.DIHEDRAL.0>
3.62425

>  <SCORE.INTRA.POLAR>
0

>  <SCORE.INTRA.POLAR.0>
0

>  <SCORE.INTRA.REPUL>
0

>  <SCORE.INTRA.REPUL.0>
0

>  <SCORE.INTRA.VDW>
0.422999

>  <SCORE.INTRA.VDW.0>
-0.725153

>  <SCORE.INTRA.norm>
0.0836516

>  <SCORE.RESTR>
0

>  <SCORE.RESTR.CAVITY>
0

>  <SCORE.RESTR.norm>
0

>  <SCORE.SYSTEM>
-1.51317

>  <SCORE.SYSTEM.CONST>
0

>  <SCORE.SYSTEM.DIHEDRAL>
0.365241

>  <SCORE.SYSTEM.POLAR>
-0.502662

>  <SCORE.SYSTEM.VDW>
0.013263

>  <SCORE.SYSTEM.norm>
-0.0840649

>  <SCORE.heavy>
18

>  <SCORE.norm>
-0.446358

>  <enum_code>
M

>  <enum_smi>
CC(C)(C)OC(=O)[NH+]1CCC(n2ccc[nH+]2)CC1

>  <sha256>
4334bda058dd8a43ee9d0d9c7bb1edabd8824594d18609c4fee1cb3dfbf32569

>  <std_smi>
CC(C)(C)OC(=O)N1CCC(n2cccn2)CC1

>  <uuid>
1c1af6de-9834-44c0-9996-c604ad38ac88

$$$$
1c1af6de-9834-44c0-9996-c604ad38ac88
  rDOCK(R)          3D
libRbt.so/2013.1/901 2013/11/27
 20 21  0  0  0  0  0  0  0  0999 V2000
   -0.9332   33.0677    3.6573 C   0  0  0  0  0  0
   -2.1488   32.3069    3.1175 C   0  0  0  0  0  0
   -1.9371   32.0315    1.6218 C   0  0  0  0  0  0
   -3.4470   33.1011    3.2955 C   0  0  0  0  0  0
   -2.2538   30.9884    3.7258 O   0  0  0  0  0  0
   -2.4123   30.8697    5.0525 C   0  0  0  0  0  0
   -2.2897   31.6921    5.9318 O   0  0  0  0  0  0
   -2.7847   29.5641    5.5719 N   0  3  0  0  0  0
   -4.2317   29.2777    5.3512 C   0  0  0  0  0  0
   -4.4768   27.7826    5.4698 C   0  0  0  0  0  0
   -3.7028   27.0199    4.3887 C   0  0  0  0  0  0
   -3.5855   25.5951    4.7203 N   0  0  0  0  0  0
   -4.1449   24.4341    4.1430 C   0  0  0  0  0  0
   -3.7064   23.2516    4.8502 C   0  0  0  0  0  0
   -2.8341   23.6872    5.9156 C   0  0  0  0  0  0
   -2.7071   25.0796    5.9084 N   0  3  0  0  0  0
   -2.3366   27.6414    4.0686 C   0  0  0  0  0  0
   -1.8075   28.4981    5.2084 C   0  0  0  0  0  0
   -2.6506   29.7816    6.5722 H   0  0  0  0  0  0
   -2.1549   25.6634    6.5420 H   0  0  0  0  0  0
  1  2  1  0  0  0
  2  3  1  0  0  0
  2  4  1  0  0  0
  2  5  1  0  0  0
  5  6  1  0  0  0
  6  7  2  0  0  0
  6  8  1  0  0  0
  8  9  1  0  0  0
  9 10  1  0  0  0
 10 11  1  0  0  0
 11 12  1  0  0  0
 12 13  1  0  0  0
 13 14  2  0  0  0
 14 15  1  0  0  0
 15 16  2  0  0  0
 11 17  1  0  0  0
 17 18  1  0  0  0
 18  8  1  0  0  0
 16 12  1  0  0  0
  8 19  1  0  0  0
 16 20  1  0  0  0
M  END
>  <CHROM.0>
-59.88758699,68.20576109

>  <CHROM.1>
60.99845990,-12.71661742,-77.01172524,111.48465690,-2.85004421,28.76189078
4.55839033,-0.14860292,-1.40727197,-1.91687711

>  <Name>
1c1af6de-9834-44c0-9996-c604ad38ac88

>  <RI>
4.06459e+07

>  <Rbt.Current_Directory>
/data/work/jku/5V6S/work/40/8dba899c20c42488f2b1a17844994e

>  <Rbt.Executable>
rbdock ($Id: //depot/dev/client3/rdock/2013.1/src/exe/rbdock.cxx#4 $)

>  <Rbt.Library>
libRbt.so (2013.1, Build901 2013/11/27)

>  <Rbt.Parameter_File>
/rDock_2013.1_src/data/scripts/dock.prm

>  <Rbt.Receptor>
docking.prm

>  <SCORE>
-8.55171

>  <SCORE.INTER>
-7.2328

>  <SCORE.INTER.CONST>
1

>  <SCORE.INTER.POLAR>
0

>  <SCORE.INTER.REPUL>
0.0754398

>  <SCORE.INTER.ROT>
4

>  <SCORE.INTER.VDW>
-17.01

>  <SCORE.INTER.norm>
-0.401822

>  <SCORE.INTRA>
0.1924

>  <SCORE.INTRA.DIHEDRAL>
1.10199

>  <SCORE.INTRA.DIHEDRAL.0>
3.62425

>  <SCORE.INTRA.POLAR>
0

>  <SCORE.INTRA.POLAR.0>
0

>  <SCORE.INTRA.REPUL>
0

>  <SCORE.INTRA.REPUL.0>
0

>  <SCORE.INTRA.VDW>
-0.358596

>  <SCORE.INTRA.VDW.0>
-0.725153

>  <SCORE.INTRA.norm>
0.0106889

>  <SCORE.RESTR>
0

>  <SCORE.RESTR.CAVITY>
0

>  <SCORE.RESTR.norm>
0

>  <SCORE.SYSTEM>
-1.51131

>  <SCORE.SYSTEM.CONST>
0

>  <SCORE.SYSTEM.DIHEDRAL>
0.334833

>  <SCORE.SYSTEM.POLAR>
-0.502244

>  <SCORE.SYSTEM.VDW>
0.0289016

>  <SCORE.SYSTEM.norm>
-0.0839617

>  <SCORE.heavy>
18

>  <SCORE.norm>
-0.475095

>  <enum_code>
M

>  <enum_smi>
CC(C)(C)OC(=O)[NH+]1CCC(n2ccc[nH+]2)CC1

>  <sha256>
4334bda058dd8a43ee9d0d9c7bb1edabd8824594d18609c4fee1cb3dfbf32569

>  <std_smi>
CC(C)(C)OC(=O)N1CCC(n2cccn2)CC1

>  <uuid>
1c1af6de-9834-44c0-9996-c604ad38ac88

$$$$
1c1af6de-9834-44c0-9996-c604ad38ac88
  rDOCK(R)          3D
libRbt.so/2013.1/901 2013/11/27
 20 21  0  0  0  0  0  0  0  0999 V2000
   -2.4716   23.6127    4.9074 C   0  0  0  0  0  0
   -1.3874   24.6310    5.2752 C   0  0  0  0  0  0
   -0.0979   24.2764    4.5210 C   0  0  0  0  0  0
   -1.0948   24.6382    6.7793 C   0  0  0  0  0  0
   -1.7383   25.9629    4.8036 O   0  0  0  0  0  0
   -2.8777   26.5426    5.2099 C   0  0  0  0  0  0
   -3.7620   26.1180    5.9185 O   0  0  0  0  0  0
   -3.1465   27.8949    4.7494 N   0  3  0  0  0  0
   -2.6635   28.9136    5.7259 C   0  0  0  0  0  0
   -2.5341   30.2597    5.0327 C   0  0  0  0  0  0
   -1.4933   30.1921    3.9095 C   0  0  0  0  0  0
   -1.6390   31.3166    2.9777 N   0  0  0  0  0  0
   -1.5765   31.4002    1.5693 C   0  0  0  0  0  0
   -1.7962   32.7600    1.1296 C   0  0  0  0  0  0
   -2.0068   33.5644    2.3104 C   0  0  0  0  0  0
   -1.9294   32.7759    3.4624 N   0  3  0  0  0  0
   -1.4811   28.8452    3.1743 C   0  0  0  0  0  0
   -2.7973   28.0960    3.3138 C   0  0  0  0  0  0
   -4.1758   27.8505    4.8164 H   0  0  0  0  0  0
   -2.0392   33.0728    4.4356 H   0  0  0  0  0  0
  1  2  1  0  0  0
  2  3  1  0  0  0
  2  4  1  0  0  0
  2  5  1  0  0  0
  5  6  1  0  0  0
  6  7  2  0  0  0
  6  8  1  0  0  0
  8  9  1  0  0  0
  9 10  1  0  0  0
 10 11  1  0  0  0
 11 12  1  0  0  0
 12 13  1  0  0  0
 13 14  2  0  0  0
 14 15  1  0  0  0
 15 16  2  0  0  0
 11 17  1  0  0  0
 17 18  1  0  0  0
 18  8  1  0  0  0
 16 12  1  0  0  0
  8 19  1  0  0  0
 16 20  1  0  0  0
M  END
>  <CHROM.0>
-59.88758699,68.34092990

>  <CHROM.1>
58.50187853,-2.85755662,-93.33182446,-138.19915720,-2.04083976,28.34974879
4.20474153,-1.56648065,0.88787719,-0.37230861

>  <Name>
1c1af6de-9834-44c0-9996-c604ad38ac88

>  <RI>
4.06459e+07

>  <Rbt.Current_Directory>
/data/work/jku/5V6S/work/40/8dba899c20c42488f2b1a17844994e

>  <Rbt.Executable>
rbdock ($Id: //depot/dev/client3/rdock/2013.1/src/exe/rbdock.cxx#4 $)

>  <Rbt.Library>
libRbt.so (2013.1, Build901 2013/11/27)

>  <Rbt.Parameter_File>
/rDock_2013.1_src/data/scripts/dock.prm

>  <Rbt.Receptor>
docking.prm

>  <SCORE>
-13.5575

>  <SCORE.INTER>
-13.0524

>  <SCORE.INTER.CONST>
1

>  <SCORE.INTER.POLAR>
-1.34003

>  <SCORE.INTER.REPUL>
0

>  <SCORE.INTER.ROT>
4

>  <SCORE.INTER.VDW>
-17.8963

>  <SCORE.INTER.norm>
-0.725133

>  <SCORE.INTRA>
1.00699

>  <SCORE.INTRA.DIHEDRAL>
0.125093

>  <SCORE.INTRA.DIHEDRAL.0>
3.62425

>  <SCORE.INTRA.POLAR>
0

>  <SCORE.INTRA.POLAR.0>
0

>  <SCORE.INTRA.REPUL>
0

>  <SCORE.INTRA.REPUL.0>
0

>  <SCORE.INTRA.VDW>
0.944448

>  <SCORE.INTRA.VDW.0>
-0.725153

>  <SCORE.INTRA.norm>
0.0559441

>  <SCORE.RESTR>
0

>  <SCORE.RESTR.CAVITY>
0

>  <SCORE.RESTR.norm>
0

>  <SCORE.SYSTEM>
-1.51213

>  <SCORE.SYSTEM.CONST>
0

>  <SCORE.SYSTEM.DIHEDRAL>
0.345529

>  <SCORE.SYSTEM.POLAR>
-0.502406

>  <SCORE.SYSTEM.VDW>
0.0232868

>  <SCORE.SYSTEM.norm>
-0.0840073

>  <SCORE.heavy>
18

>  <SCORE.norm>
-0.753196

>  <enum_code>
M

>  <enum_smi>
CC(C)(C)OC(=O)[NH+]1CCC(n2ccc[nH+]2)CC1

>  <sha256>
4334bda058dd8a43ee9d0d9c7bb1edabd8824594d18609c4fee1cb3dfbf32569

>  <std_smi>
CC(C)(C)OC(=O)N1CCC(n2cccn2)CC1

>  <uuid>
1c1af6de-9834-44c0-9996-c604ad38ac88

$$$$
1c1af6de-9834-44c0-9996-c604ad38ac88
  rDOCK(R)          3D
libRbt.so/2013.1/901 2013/11/27
 20 21  0  0  0  0  0  0  0  0999 V2000
   -6.0854   26.1953    3.5999 C   0  0  0  0  0  0
   -5.0877   26.7221    4.6367 C   0  0  0  0  0  0
   -4.4695   25.5294    5.3803 C   0  0  0  0  0  0
   -5.7574   27.6483    5.6573 C   0  0  0  0  0  0
   -3.9611   27.3810    3.9916 O   0  0  0  0  0  0
   -2.9574   27.8765    4.7310 C   0  0  0  0  0  0
   -2.8106   27.9051    5.9319 O   0  0  0  0  0  0
   -1.8454   28.4952    4.0283 N   0  3  0  0  0  0
   -1.6065   27.8518    2.7041 C   0  0  0  0  0  0
   -0.7855   28.7836    1.8281 C   0  0  0  0  0  0
   -1.5487   30.0853    1.5586 C   0  0  0  0  0  0
   -0.6496   31.1429    1.0823 N   0  0  0  0  0  0
   -0.6364   32.5413    1.2790 C   0  0  0  0  0  0
    0.4825   33.1423    0.5879 C   0  0  0  0  0  0
    1.2033   32.0774   -0.0694 C   0  0  0  0  0  0
    0.5911   30.8447    0.1764 N   0  3  0  0  0  0
   -2.3906   30.5530    2.7533 C   0  0  0  0  0  0
   -1.8915   29.9849    4.0729 C   0  0  0  0  0  0
   -1.0999   28.1872    4.6727 H   0  0  0  0  0  0
    0.8805   29.9217   -0.1575 H   0  0  0  0  0  0
  1  2  1  0  0  0
  2  3  1  0  0  0
  2  4  1  0  0  0
  2  5  1  0  0  0
  5  6  1  0  0  0
  6  7  2  0  0  0
  6  8  1  0  0  0
  8  9  1  0  0  0
  9 10  1  0  0  0
 10 11  1  0  0  0
 11 12  1  0  0  0
 12 13  1  0  0  0
 13 14  2  0  0  0
 14 15  1  0  0  0
 15 16  2  0  0  0
 11 17  1  0  0  0
 17 18  1  0  0  0
 18  8  1  0  0  0
 16 12  1  0  0  0
  8 19  1  0  0  0
 16 20  1  0  0  0
M  END
>  <CHROM.0>
-59.88758699,179.82125622

>  <CHROM.1>
-178.06093405,-1.75429588,-31.93610978,-145.41612401,-2.27844115,29.08141615
3.05110179,-3.07161388,0.92673054,0.77620934

>  <Name>
1c1af6de-9834-44c0-9996-c604ad38ac88

>  <RI>
4.06459e+07

>  <Rbt.Current_Directory>
/data/work/jku/5V6S/work/40/8dba899c20c42488f2b1a17844994e

>  <Rbt.Executable>
rbdock ($Id: //depot/dev/client3/rdock/2013.1/src/exe/rbdock.cxx#4 $)

>  <Rbt.Library>
libRbt.so (2013.1, Build901 2013/11/27)

>  <Rbt.Parameter_File>
/rDock_2013.1_src/data/scripts/dock.prm

>  <Rbt.Receptor>
docking.prm

>  <SCORE>
-7.65552

>  <SCORE.INTER>
-10.1584

>  <SCORE.INTER.CONST>
1

>  <SCORE.INTER.POLAR>
0

>  <SCORE.INTER.REPUL>
0

>  <SCORE.INTER.ROT>
4

>  <SCORE.INTER.VDW>
-19.5584

>  <SCORE.INTER.norm>
-0.564355

>  <SCORE.INTRA>
2.77462

>  <SCORE.INTRA.DIHEDRAL>
-0.00948478

>  <SCORE.INTRA.DIHEDRAL.0>
3.62425

>  <SCORE.INTRA.POLAR>
0

>  <SCORE.INTRA.POLAR.0>
0

>  <SCORE.INTRA.REPUL>
0

>  <SCORE.INTRA.REPUL.0>
0

>  <SCORE.INTRA.VDW>
2.77936

>  <SCORE.INTRA.VDW.0>
-0.725153

>  <SCORE.INTRA.norm>
0.154146

>  <SCORE.RESTR>
0

>  <SCORE.RESTR.CAVITY>
0

>  <SCORE.RESTR.norm>
0

>  <SCORE.SYSTEM>
-0.271755

>  <SCORE.SYSTEM.CONST>
0

>  <SCORE.SYSTEM.DIHEDRAL>
0.00778895

>  <SCORE.SYSTEM.VDW>
-0.275649

>  <SCORE.SYSTEM.norm>
-0.0150975

>  <SCORE.heavy>
18

>  <SCORE.norm>
-0.425306

>  <enum_code>
M

>  <enum_smi>
CC(C)(C)OC(=O)[NH+]1CCC(n2ccc[nH+]2)CC1

>  <sha256>
4334bda058dd8a43ee9d0d9c7bb1edabd8824594d18609c4fee1cb3dfbf32569

>  <std_smi>
CC(C)(C)OC(=O)N1CCC(n2cccn2)CC1

>  <uuid>
1c1af6de-9834-44c0-9996-c604ad38ac88

$$$$
94339ece-ca4d-4019-a14c-b58ba2f5dc67
  rDOCK(R)          3D
libRbt.so/2013.1/901 2013/11/27
 17 18  0  0  0  0  0  0  0  0999 V2000
    0.0154   29.6734    0.6597 O   0  0  0  0  0  0
   -0.4157   30.7006    1.4520 C   0  0  0  0  0  0
   -0.0745   31.9832    1.0236 C   0  0  0  0  0  0
   -0.5024   33.0987    1.7442 C   0  0  0  0  0  0
   -1.2683   32.9323    2.8972 C   0  0  0  0  0  0
   -1.5964   31.6485    3.3379 C   0  0  0  0  0  0
   -1.1628   30.5249    2.6218 C   0  0  0  0  0  0
   -1.4655   29.1762    3.1429 C   0  0  0  0  0  0
   -2.1038   28.9967    4.2575 N   0  0  0  0  0  0
   -2.3178   27.6659    4.6371 C   0  0  0  0  0  0
   -1.3787   26.6775    4.3269 C   0  0  0  0  0  0
   -1.5892   25.3536    4.7206 C   0  0  0  0  0  0
   -2.7382   25.0211    5.4361 C   0  0  0  0  0  0
   -3.0010   23.3919    5.9219 Cl  0  0  0  0  0  0
   -3.6735   26.0009    5.7650 C   0  0  0  0  0  0
   -3.4581   27.3233    5.3686 C   0  0  0  0  0  0
   -0.2305   29.8578   -0.2620 H   0  0  0  0  0  0
  1  2  1  0  0  0
  2  3  2  0  0  0
  3  4  1  0  0  0
  4  5  2  0  0  0
  5  6  1  0  0  0
  6  7  2  0  0  0
  7  8  1  0  0  0
  8  9  2  0  0  0
  9 10  1  0  0  0
 10 11  2  0  0  0
 11 12  1  0  0  0
 12 13  2  0  0  0
 13 14  1  0  0  0
 13 15  1  0  0  0
 15 16  2  0  0  0
  7  2  1  0  0  0
 16 10  1  0  0  0
  1 17  1  0  0  0
M  END
>  <CHROM.0>
-59.88758699,68.30691866

>  <CHROM.1>
-49.98796647,176.78643715,33.15671538,-1.77356382,28.26312668,3.75797377
-1.12163207,-0.91882240,3.02456758

>  <Name>
94339ece-ca4d-4019-a14c-b58ba2f5dc67

>  <RI>
3.87781e+07

>  <Rbt.Current_Directory>
/data/work/jku/5V6S/work/40/8dba899c20c42488f2b1a17844994e

>  <Rbt.Executable>
rbdock ($Id: //depot/dev/client3/rdock/2013.1/src/exe/rbdock.cxx#4 $)

>  <Rbt.Library>
libRbt.so (2013.1, Build901 2013/11/27)

>  <Rbt.Parameter_File>
/rDock_2013.1_src/data/scripts/dock.prm

>  <Rbt.Receptor>
docking.prm

>  <SCORE>
-15.2314

>  <SCORE.INTER>
-13.3216

>  <SCORE.INTER.CONST>
1

>  <SCORE.INTER.POLAR>
-0.912228

>  <SCORE.INTER.REPUL>
0

>  <SCORE.INTER.ROT>
2

>  <SCORE.INTER.VDW>
-17.62

>  <SCORE.INTER.norm>
-0.832599

>  <SCORE.INTRA>
-0.39787

>  <SCORE.INTRA.DIHEDRAL>
-3.52665

>  <SCORE.INTRA.DIHEDRAL.0>
8.1983

>  <SCORE.INTRA.POLAR>
0

>  <SCORE.INTRA.POLAR.0>
0

>  <SCORE.INTRA.REPUL>
0

>  <SCORE.INTRA.REPUL.0>
0

>  <SCORE.INTRA.VDW>
1.36545

>  <SCORE.INTRA.VDW.0>
-0.302115

>  <SCORE.INTRA.norm>
-0.0248669

>  <SCORE.RESTR>
0

>  <SCORE.RESTR.CAVITY>
0

>  <SCORE.RESTR.norm>
0

>  <SCORE.SYSTEM>
-1.51194

>  <SCORE.SYSTEM.CONST>
0

>  <SCORE.SYSTEM.DIHEDRAL>
0.342822

>  <SCORE.SYSTEM.POLAR>
-0.502367

>  <SCORE.SYSTEM.VDW>
0.0246955

>  <SCORE.SYSTEM.norm>
-0.0944963

>  <SCORE.heavy>
16

>  <SCORE.norm>
-0.951962

>  <enum_code>
B

>  <enum_smi>
Oc1ccccc1/C=N/c1ccc(Cl)cc1

>  <sha256>
813ba6512c1cc078b45b435424e0b61f270be0ff8107213ae8328c50911fa2cc

>  <std_smi>
Oc1ccccc1/C=N/c1ccc(Cl)cc1

>  <uuid>
94339ece-ca4d-4019-a14c-b58ba2f5dc67

$$$$
94339ece-ca4d-4019-a14c-b58ba2f5dc67
  rDOCK(R)          3D
libRbt.so/2013.1/901 2013/11/27
 17 18  0  0  0  0  0  0  0  0999 V2000
   -1.5772   31.7101    5.4377 O   0  0  0  0  0  0
   -1.4145   31.9060    4.0947 C   0  0  0  0  0  0
   -1.2158   33.2265    3.6927 C   0  0  0  0  0  0
   -1.0009   33.5234    2.3464 C   0  0  0  0  0  0
   -0.9891   32.5000    1.3999 C   0  0  0  0  0  0
   -1.2053   31.1790    1.7976 C   0  0  0  0  0  0
   -1.4290   30.8766    3.1473 C   0  0  0  0  0  0
   -1.7209   29.4815    3.5354 C   0  0  0  0  0  0
   -1.8615   29.1274    4.7751 N   0  0  0  0  0  0
   -2.1295   27.7717    5.0017 C   0  0  0  0  0  0
   -2.9203   27.0435    4.1077 C   0  0  0  0  0  0
   -3.1730   25.6874    4.3298 C   0  0  0  0  0  0
   -2.6230   25.0568    5.4446 C   0  0  0  0  0  0
   -2.9324   23.3875    5.7215 Cl  0  0  0  0  0  0
   -1.8199   25.7689    6.3339 C   0  0  0  0  0  0
   -1.5706   27.1249    6.1071 C   0  0  0  0  0  0
   -1.7458   30.7677    5.6036 H   0  0  0  0  0  0
  1  2  1  0  0  0
  2  3  2  0  0  0
  3  4  1  0  0  0
  4  5  2  0  0  0
  5  6  1  0  0  0
  6  7  2  0  0  0
  7  8  1  0  0  0
  8  9  2  0  0  0
  9 10  1  0  0  0
 10 11  2  0  0  0
 11 12  1  0  0  0
 12 13  2  0  0  0
 13 14  1  0  0  0
 13 15  1  0  0  0
 15 16  2  0  0  0
  7  2  1  0  0  0
 16 10  1  0  0  0
  1 17  1  0  0  0
M  END
>  <CHROM.0>
-59.88758699,-179.62435384

>  <CHROM.1>
177.56956891,-6.06887562,-35.22929772,-1.94907574,28.57836306,4.37205938
-0.61740935,1.35080840,1.88145832

>  <Name>
94339ece-ca4d-4019-a14c-b58ba2f5dc67

>  <RI>
3.87781e+07

>  <Rbt.Current_Directory>
/data/work/jku/5V6S/work/40/8dba899c20c42488f2b1a17844994e

>  <Rbt.Executable>
rbdock ($Id: //depot/dev/client3/rdock/2013.1/src/exe/rbdock.cxx#4 $)

>  <Rbt.Library>
libRbt.so (2013.1, Build901 2013/11/27)

>  <Rbt.Parameter_File>
/rDock_2013.1_src/data/scripts/dock.prm

>  <Rbt.Receptor>
docking.prm

>  <SCORE>
-15.4837

>  <SCORE.INTER>
-10.658

>  <SCORE.INTER.CONST>
1

>  <SCORE.INTER.POLAR>
0

>  <SCORE.INTER.REPUL>
0.0436898

>  <SCORE.INTER.ROT>
2

>  <SCORE.INTER.VDW>
-18.2765

>  <SCORE.INTER.norm>
-0.666126

>  <SCORE.INTRA>
-4.55436

>  <SCORE.INTRA.DIHEDRAL>
-5.84954

>  <SCORE.INTRA.DIHEDRAL.0>
8.1983

>  <SCORE.INTRA.POLAR>
-0.859035

>  <SCORE.INTRA.POLAR.0>
0

>  <SCORE.INTRA.REPUL>
0

>  <SCORE.INTRA.REPUL.0>
0

>  <SCORE.INTRA.VDW>
1.29113

>  <SCORE.INTRA.VDW.0>
-0.302115

>  <SCORE.INTRA.norm>
-0.284647

>  <SCORE.RESTR>
0

>  <SCORE.RESTR.CAVITY>
0

>  <SCORE.RESTR.norm>
0

>  <SCORE.SYSTEM>
-0.271349

>  <SCORE.SYSTEM.CONST>
0

>  <SCORE.SYSTEM.DIHEDRAL>
0.00832762

>  <SCORE.SYSTEM.VDW>
-0.275513

>  <SCORE.SYSTEM.norm>
-0.0169593

>  <SCORE.heavy>
16

>  <SCORE.norm>
-0.967733

>  <enum_code>
B

>  <enum_smi>
Oc1ccccc1/C=N/c1ccc(Cl)cc1

>  <sha256>
813ba6512c1cc078b45b435424e0b61f270be0ff8107213ae8328c50911fa2cc

>  <std_smi>
Oc1ccccc1/C=N/c1ccc(Cl)cc1

>  <uuid>
94339ece-ca4d-4019-a14c-b58ba2f5dc67

$$$$
94339ece-ca4d-4019-a14c-b58ba2f5dc67
  rDOCK(R)          3D
libRbt.so/2013.1/901 2013/11/27
 17 18  0  0  0  0  0  0  0  0999 V2000
   -1.5710   31.7079    5.4532 O   0  0  0  0  0  0
   -1.4200   31.9011    4.1084 C   0  0  0  0  0  0
   -1.2245   33.2208    3.7021 C   0  0  0  0  0  0
   -1.0213   33.5150    2.3535 C   0  0  0  0  0  0
   -1.0179   32.4897    1.4088 C   0  0  0  0  0  0
   -1.2309   31.1695    1.8110 C   0  0  0  0  0  0
   -1.4429   30.8698    3.1632 C   0  0  0  0  0  0
   -1.7316   29.4755    3.5566 C   0  0  0  0  0  0
   -1.8342   29.1185    4.7992 N   0  0  0  0  0  0
   -2.1041   27.7640    5.0305 C   0  0  0  0  0  0
   -1.5287   27.0993    6.1178 C   0  0  0  0  0  0
   -1.8124   25.7517    6.3533 C   0  0  0  0  0  0
   -2.6831   25.0713    5.5037 C   0  0  0  0  0  0
   -3.0341   23.4118    5.7904 Cl  0  0  0  0  0  0
   -3.2750   25.7280    4.4261 C   0  0  0  0  0  0
   -2.9877   27.0757    4.1950 C   0  0  0  0  0  0
   -1.7143   30.7623    5.6246 H   0  0  0  0  0  0
  1  2  1  0  0  0
  2  3  2  0  0  0
  3  4  1  0  0  0
  4  5  2  0  0  0
  5  6  1  0  0  0
  6  7  2  0  0  0
  7  8  1  0  0  0
  8  9  2  0  0  0
  9 10  1  0  0  0
 10 11  2  0  0  0
 11 12  1  0  0  0
 12 13  2  0  0  0
 13 14  1  0  0  0
 13 15  1  0  0  0
 15 16  2  0  0  0
  7  2  1  0  0  0
 16 10  1  0  0  0
  1 17  1  0  0  0
M  END
>  <CHROM.0>
-59.88758699,68.60917823

>  <CHROM.1>
179.09608499,-7.51863503,143.26269179,-1.97727005,28.58058402,4.40668041
-0.69138282,1.32872253,1.95128988

>  <Name>
94339ece-ca4d-4019-a14c-b58ba2f5dc67

>  <RI>
3.87781e+07

>  <Rbt.Current_Directory>
/data/work/jku/5V6S/work/40/8dba899c20c42488f2b1a17844994e

>  <Rbt.Executable>
rbdock ($Id: //depot/dev/client3/rdock/2013.1/src/exe/rbdock.cxx#4 $)

>  <Rbt.Library>
libRbt.so (2013.1, Build901 2013/11/27)

>  <Rbt.Parameter_File>
/rDock_2013.1_src/data/scripts/dock.prm

>  <Rbt.Receptor>
docking.prm

>  <SCORE>
-16.7682

>  <SCORE.INTER>
-10.7558

>  <SCORE.INTER.CONST>
1

>  <SCORE.INTER.POLAR>
0

>  <SCORE.INTER.REPUL>
0.0425924

>  <SCORE.INTER.ROT>
2

>  <SCORE.INTER.VDW>
-18.3687

>  <SCORE.INTER.norm>
-0.672235

>  <SCORE.INTRA>
-4.49924

>  <SCORE.INTRA.DIHEDRAL>
-5.6317

>  <SCORE.INTRA.DIHEDRAL.0>
8.1983

>  <SCORE.INTRA.POLAR>
-0.859719

>  <SCORE.INTRA.POLAR.0>
0

>  <SCORE.INTRA.REPUL>
0

>  <SCORE.INTRA.REPUL.0>
0

>  <SCORE.INTRA.VDW>
1.23966

>  <SCORE.INTRA.VDW.0>
-0.302115

>  <SCORE.INTRA.norm>
-0.281202

>  <SCORE.RESTR>
0

>  <SCORE.RESTR.CAVITY>
0

>  <SCORE.RESTR.norm>
0

>  <SCORE.SYSTEM>
-1.51324

>  <SCORE.SYSTEM.CONST>
0

>  <SCORE.SYSTEM.DIHEDRAL>
0.367237

>  <SCORE.SYSTEM.POLAR>
-0.502685

>  <SCORE.SYSTEM.VDW>
0.0122703

>  <SCORE.SYSTEM.norm>
-0.0945775

>  <SCORE.heavy>
16

>  <SCORE.norm>
-1.04802

>  <enum_code>
B

>  <enum_smi>
Oc1ccccc1/C=N/c1ccc(Cl)cc1

>  <sha256>
813ba6512c1cc078b45b435424e0b61f270be0ff8107213ae8328c50911fa2cc

>  <std_smi>
Oc1ccccc1/C=N/c1ccc(Cl)cc1

>  <uuid>
94339ece-ca4d-4019-a14c-b58ba2f5dc67

$$$$
94339ece-ca4d-4019-a14c-b58ba2f5dc67
  rDOCK(R)          3D
libRbt.so/2013.1/901 2013/11/27
 17 18  0  0  0  0  0  0  0  0999 V2000
   -1.7685   32.1269    4.5584 O   0  0  0  0  0  0
   -1.3002   31.9658    3.2843 C   0  0  0  0  0  0
   -1.0095   33.1401    2.5905 C   0  0  0  0  0  0
   -0.4892   33.0785    1.2974 C   0  0  0  0  0  0
   -0.2634   31.8418    0.6947 C   0  0  0  0  0  0
   -0.5702   30.6648    1.3807 C   0  0  0  0  0  0
   -1.0998   30.7216    2.6767 C   0  0  0  0  0  0
   -1.4782   29.4662    3.3572 C   0  0  0  0  0  0
   -1.1074   28.3050    2.9144 N   0  0  0  0  0  0
   -1.5419   27.1970    3.6524 C   0  0  0  0  0  0
   -2.8747   27.0933    4.0624 C   0  0  0  0  0  0
   -3.3072   25.9791    4.7858 C   0  0  0  0  0  0
   -2.4049   24.9612    5.0899 C   0  0  0  0  0  0
   -2.9339   23.5881    5.9810 Cl  0  0  0  0  0  0
   -1.0777   25.0463    4.6725 C   0  0  0  0  0  0
   -0.6503   26.1629    3.9494 C   0  0  0  0  0  0
   -1.8684   33.0755    4.7430 H   0  0  0  0  0  0
  1  2  1  0  0  0
  2  3  2  0  0  0
  3  4  1  0  0  0
  4  5  2  0  0  0
  5  6  1  0  0  0
  6  7  2  0  0  0
  7  8  1  0  0  0
  8  9  2  0  0  0
  9 10  1  0  0  0
 10 11  2  0  0  0
 11 12  1  0  0  0
 12 13  2  0  0  0
 13 14  1  0  0  0
 13 15  1  0  0  0
 15 16  2  0  0  0
  7  2  1  0  0  0
 16 10  1  0  0  0
  1 17  1  0  0  0
M  END
>  <CHROM.0>
-59.88758699,68.87926036

>  <CHROM.1>
3.40615731,-168.55240323,46.71839795,-1.63381816,28.38642902,3.69457664,1.20865792
0.98687536,-0.07743145

>  <Name>
94339ece-ca4d-4019-a14c-b58ba2f5dc67

>  <RI>
3.87781e+07

>  <Rbt.Current_Directory>
/data/work/jku/5V6S/work/40/8dba899c20c42488f2b1a17844994e

>  <Rbt.Executable>
rbdock ($Id: //depot/dev/client3/rdock/2013.1/src/exe/rbdock.cxx#4 $)

>  <Rbt.Library>
libRbt.so (2013.1, Build901 2013/11/27)

>  <Rbt.Parameter_File>
/rDock_2013.1_src/data/scripts/dock.prm

>  <Rbt.Receptor>
docking.prm

>  <SCORE>
-16.8801

>  <SCORE.INTER>
-14.6888

>  <SCORE.INTER.CONST>
1

>  <SCORE.INTER.POLAR>
-0.894427

>  <SCORE.INTER.REPUL>
0

>  <SCORE.INTER.ROT>
2

>  <SCORE.INTER.VDW>
-19.0477

>  <SCORE.INTER.norm>
-0.918048

>  <SCORE.INTRA>
-0.67772

>  <SCORE.INTRA.DIHEDRAL>
-4.30057

>  <SCORE.INTRA.DIHEDRAL.0>
8.1983

>  <SCORE.INTRA.POLAR>
0

>  <SCORE.INTRA.POLAR.0>
0

>  <SCORE.INTRA.REPUL>
0

>  <SCORE.INTRA.REPUL.0>
0

>  <SCORE.INTRA.VDW>
1.47257

>  <SCORE.INTRA.VDW.0>
-0.302115

>  <SCORE.INTRA.norm>
-0.0423575

>  <SCORE.RESTR>
0

>  <SCORE.RESTR.CAVITY>
0

>  <SCORE.RESTR.norm>
0

>  <SCORE.SYSTEM>
-1.51366

>  <SCORE.SYSTEM.CONST>
0

>  <SCORE.SYSTEM.DIHEDRAL>
0.38974

>  <SCORE.SYSTEM.POLAR>
-0.502906

>  <SCORE.SYSTEM.VDW>
0.00134699

>  <SCORE.SYSTEM.norm>
-0.094604

>  <SCORE.heavy>
16

>  <SCORE.norm>
-1.05501

>  <enum_code>
B

>  <enum_smi>
Oc1ccccc1/C=N/c1ccc(Cl)cc1

>  <sha256>
813ba6512c1cc078b45b435424e0b61f270be0ff8107213ae8328c50911fa2cc

>  <std_smi>
Oc1ccccc1/C=N/c1ccc(Cl)cc1

>  <uuid>
94339ece-ca4d-4019-a14c-b58ba2f5dc67

$$$$
94339ece-ca4d-4019-a14c-b58ba2f5dc67
  rDOCK(R)          3D
libRbt.so/2013.1/901 2013/11/27
 17 18  0  0  0  0  0  0  0  0999 V2000
    0.4414   24.9042    3.9268 O   0  0  0  0  0  0
   -0.8206   24.9465    4.4504 C   0  0  0  0  0  0
   -1.2528   23.7846    5.0892 C   0  0  0  0  0  0
   -2.5115   23.7430    5.6898 C   0  0  0  0  0  0
   -3.3414   24.8624    5.6480 C   0  0  0  0  0  0
   -2.9179   26.0211    4.9938 C   0  0  0  0  0  0
   -1.6578   26.0653    4.3827 C   0  0  0  0  0  0
   -1.2581   27.2782    3.6401 C   0  0  0  0  0  0
   -2.0353   28.3118    3.5418 N   0  0  0  0  0  0
   -1.5341   29.3910    2.8034 C   0  0  0  0  0  0
   -1.6597   30.6993    3.2805 C   0  0  0  0  0  0
   -1.1451   31.7717    2.5475 C   0  0  0  0  0  0
   -0.4935   31.5317    1.3389 C   0  0  0  0  0  0
    0.1408   32.8498    0.4336 Cl  0  0  0  0  0  0
   -0.3482   30.2303    0.8614 C   0  0  0  0  0  0
   -0.8649   29.1615    1.5983 C   0  0  0  0  0  0
    0.6506   25.7666    3.5311 H   0  0  0  0  0  0
  1  2  1  0  0  0
  2  3  2  0  0  0
  3  4  1  0  0  0
  4  5  2  0  0  0
  5  6  1  0  0  0
  6  7  2  0  0  0
  7  8  1  0  0  0
  8  9  2  0  0  0
  9 10  1  0  0  0
 10 11  2  0  0  0
 11 12  1  0  0  0
 12 13  2  0  0  0
 13 14  1  0  0  0
 13 15  1  0  0  0
 15 16  2  0  0  0
  7  2  1  0  0  0
 16 10  1  0  0  0
  1 17  1  0  0  0
M  END
>  <CHROM.0>
-59.88758699,69.10042018

>  <CHROM.1>
-178.34440750,178.37329311,-135.33944312,-1.16151772,28.28412844,3.11365843
-1.77948148,0.57441810,-0.37820970

>  <Name>
94339ece-ca4d-4019-a14c-b58ba2f5dc67

>  <RI>
3.87781e+07

>  <Rbt.Current_Directory>
/data/work/jku/5V6S/work/40/8dba899c20c42488f2b1a17844994e

>  <Rbt.Executable>
rbdock ($Id: //depot/dev/client3/rdock/2013.1/src/exe/rbdock.cxx#4 $)

>  <Rbt.Library>
libRbt.so (2013.1, Build901 2013/11/27)

>  <Rbt.Parameter_File>
/rDock_2013.1_src/data/scripts/dock.prm

>  <Rbt.Receptor>
docking.prm

>  <SCORE>
-14.2667

>  <SCORE.INTER>
-11.4943

>  <SCORE.INTER.CONST>
1

>  <SCORE.INTER.POLAR>
0

>  <SCORE.INTER.REPUL>
0

>  <SCORE.INTER.ROT>
2

>  <SCORE.INTER.VDW>
-18.8943

>  <SCORE.INTER.norm>
-0.718391

>  <SCORE.INTRA>
-1.25894

>  <SCORE.INTRA.DIHEDRAL>
-5.13891

>  <SCORE.INTRA.DIHEDRAL.0>
8.1983

>  <SCORE.INTRA.POLAR>
0

>  <SCORE.INTRA.POLAR.0>
0

>  <SCORE.INTRA.REPUL>
0

>  <SCORE.INTRA.REPUL.0>
0

>  <SCORE.INTRA.VDW>
1.31051

>  <SCORE.INTRA.VDW.0>
-0.302115

>  <SCORE.INTRA.norm>
-0.078684

>  <SCORE.RESTR>
0

>  <SCORE.RESTR.CAVITY>
0

>  <SCORE.RESTR.norm>
0

>  <SCORE.SYSTEM>
-1.5135

>  <SCORE.SYSTEM.CONST>
0

>  <SCORE.SYSTEM.DIHEDRAL>
0.408646

>  <SCORE.SYSTEM.POLAR>
-0.503043

>  <SCORE.SYSTEM.VDW>
-0.007473

>  <SCORE.SYSTEM.norm>
-0.0945936

>  <SCORE.heavy>
16

>  <SCORE.norm>
-0.891668

>  <enum_code>
B

>  <enum_smi>
Oc1ccccc1/C=N/c1ccc(Cl)cc1

>  <sha256>
813ba6512c1cc078b45b435424e0b61f270be0ff8107213ae8328c50911fa2cc

>  <std_smi>
Oc1ccccc1/C=N/c1ccc(Cl)cc1

>  <uuid>
94339ece-ca4d-4019-a14c-b58ba2f5dc67

$$$$
1346463c-88eb-407e-8e89-eafa57ac1942
  rDOCK(R)          3D
libRbt.so/2013.1/901 2013/11/27
 17 18  0  0  0  0  0  0  0  0999 V2000
    0.0088   29.9816    0.6892 O   0  0  0  0  0  0
   -0.3844   30.9131    1.3836 C   0  0  0  0  0  0
   -0.1096   32.3136    0.9675 C   0  0  0  0  0  0
   -0.5300   33.3455    1.7111 C   0  0  0  0  0  0
   -1.2625   33.1564    2.9397 C   0  0  0  0  0  0
   -1.5583   31.9311    3.3972 C   0  0  0  0  0  0
   -1.1513   30.7396    2.6707 C   0  0  0  0  0  0
   -1.4075   29.4761    3.0598 C   0  0  0  0  0  0
   -2.0779   29.0273    4.1750 N   0  0  0  0  0  0
   -2.3447   27.7067    4.5805 C   0  0  0  0  0  0
   -1.5767   26.6691    4.0243 C   0  0  0  0  0  0
   -1.7885   25.3333    4.3824 C   0  0  0  0  0  0
   -2.7771   25.0169    5.3071 C   0  0  0  0  0  0
   -3.0427   23.3772    5.7519 Cl  0  0  0  0  0  0
   -3.5511   26.0244    5.8725 C   0  0  0  0  0  0
   -3.3342   27.3599    5.5099 C   0  0  0  0  0  0
   -2.4328   29.7427    4.7976 H   0  0  0  0  0  0
  1  2  2  0  0  0
  2  3  1  0  0  0
  3  4  2  0  0  0
  4  5  1  0  0  0
  5  6  2  0  0  0
  6  7  1  0  0  0
  7  8  2  0  0  0
  8  9  1  0  0  0
  9 10  1  0  0  0
 10 11  2  0  0  0
 11 12  1  0  0  0
 12 13  2  0  0  0
 13 14  1  0  0  0
 13 15  1  0  0  0
 15 16  2  0  0  0
  7  2  1  0  0  0
 16 10  1  0  0  0
  9 17  1  0  0  0
M  END
>  <CHROM.0>
-59.88758699,68.73612834

>  <CHROM.1>
18.59940485,-1.79589799,28.38710464,3.71440535,-1.10002577,-0.95742591,3.08586013

>  <Name>
1346463c-88eb-407e-8e89-eafa57ac1942

>  <RI>
3.35393e+07

>  <Rbt.Current_Directory>
/data/work/jku/5V6S/work/40/8dba899c20c42488f2b1a17844994e

>  <Rbt.Executable>
rbdock ($Id: //depot/dev/client3/rdock/2013.1/src/exe/rbdock.cxx#4 $)

>  <Rbt.Library>
libRbt.so (2013.1, Build901 2013/11/27)

>  <Rbt.Parameter_File>
/rDock_2013.1_src/data/scripts/dock.prm

>  <Rbt.Receptor>
docking.prm

>  <SCORE>
-11.7644

>  <SCORE.INTER>
-10.9309

>  <SCORE.INTER.CONST>
1

>  <SCORE.INTER.POLAR>
0

>  <SCORE.INTER.REPUL>
0.0019553

>  <SCORE.INTER.ROT>
1

>  <SCORE.INTER.VDW>
-17.3407

>  <SCORE.INTER.norm>
-0.68318

>  <SCORE.INTRA>
0.679955

>  <SCORE.INTRA.DIHEDRAL>
1.30226

>  <SCORE.INTRA.DIHEDRAL.0>
7.41195e-08

>  <SCORE.INTRA.POLAR>
0

>  <SCORE.INTRA.POLAR.0>
0

>  <SCORE.INTRA.REPUL>
0

>  <SCORE.INTRA.REPUL.0>
0

>  <SCORE.INTRA.VDW>
0.0288243

>  <SCORE.INTRA.VDW.0>
-0.0730897

>  <SCORE.INTRA.norm>
0.0424972

>  <SCORE.RESTR>
0

>  <SCORE.RESTR.CAVITY>
0

>  <SCORE.RESTR.norm>
0

>  <SCORE.SYSTEM>
-1.51353

>  <SCORE.SYSTEM.CONST>
0

>  <SCORE.SYSTEM.DIHEDRAL>
0.377734

>  <SCORE.SYSTEM.POLAR>
-0.502796

>  <SCORE.SYSTEM.VDW>
0.00711492

>  <SCORE.SYSTEM.norm>
-0.0945954

>  <SCORE.heavy>
16

>  <SCORE.norm>
-0.735278

>  <enum_code>
T

>  <enum_smi>
O=C1C=CC=CC1=CNc1ccc(Cl)cc1

>  <sha256>
813ba6512c1cc078b45b435424e0b61f270be0ff8107213ae8328c50911fa2cc

>  <std_smi>
Oc1ccccc1/C=N/c1ccc(Cl)cc1

>  <uuid>
1346463c-88eb-407e-8e89-eafa57ac1942

$$$$
1346463c-88eb-407e-8e89-eafa57ac1942
  rDOCK(R)          3D
libRbt.so/2013.1/901 2013/11/27
 17 18  0  0  0  0  0  0  0  0999 V2000
   -2.7544   32.0743    3.7426 O   0  0  0  0  0  0
   -1.9131   31.9765    2.8553 C   0  0  0  0  0  0
   -1.5134   33.1796    2.0788 C   0  0  0  0  0  0
   -0.5967   33.0950    1.1058 C   0  0  0  0  0  0
    0.0440   31.8484    0.7630 C   0  0  0  0  0  0
   -0.2503   30.7095    1.4066 C   0  0  0  0  0  0
   -1.2305   30.6850    2.4798 C   0  0  0  0  0  0
   -1.5830   29.5869    3.1751 C   0  0  0  0  0  0
   -1.1293   28.2935    3.0490 N   0  0  0  0  0  0
   -1.4985   27.1470    3.7761 C   0  0  0  0  0  0
   -2.7431   27.1425    4.4296 C   0  0  0  0  0  0
   -3.1733   26.0360    5.1700 C   0  0  0  0  0  0
   -2.3590   24.9134    5.2664 C   0  0  0  0  0  0
   -2.8816   23.5500    6.1747 Cl  0  0  0  0  0  0
   -1.1229   24.8919    4.6296 C   0  0  0  0  0  0
   -0.6978   26.0028    3.8898 C   0  0  0  0  0  0
   -0.4304   28.1360    2.3335 H   0  0  0  0  0  0
  1  2  2  0  0  0
  2  3  1  0  0  0
  3  4  2  0  0  0
  4  5  1  0  0  0
  5  6  2  0  0  0
  6  7  1  0  0  0
  7  8  2  0  0  0
  8  9  1  0  0  0
  9 10  1  0  0  0
 10 11  2  0  0  0
 11 12  1  0  0  0
 12 13  2  0  0  0
 13 14  1  0  0  0
 13 15  1  0  0  0
 15 16  2  0  0  0
  7  2  1  0  0  0
 16 10  1  0  0  0
  9 17  1  0  0  0
M  END
>  <CHROM.0>
-59.88758699,67.99346264

>  <CHROM.1>
22.14147251,-1.71816747,28.34947692,3.64064050,1.36323425,0.70139971,-0.30108677

>  <Name>
1346463c-88eb-407e-8e89-eafa57ac1942

>  <RI>
3.35393e+07

>  <Rbt.Current_Directory>
/data/work/jku/5V6S/work/40/8dba899c20c42488f2b1a17844994e

>  <Rbt.Executable>
rbdock ($Id: //depot/dev/client3/rdock/2013.1/src/exe/rbdock.cxx#4 $)

>  <Rbt.Library>
libRbt.so (2013.1, Build901 2013/11/27)

>  <Rbt.Parameter_File>
/rDock_2013.1_src/data/scripts/dock.prm

>  <Rbt.Receptor>
docking.prm

>  <SCORE>
-10.7143

>  <SCORE.INTER>
-10.1096

>  <SCORE.INTER.CONST>
1

>  <SCORE.INTER.POLAR>
0

>  <SCORE.INTER.REPUL>
6.75696e-05

>  <SCORE.INTER.ROT>
1

>  <SCORE.INTER.VDW>
-16.51

>  <SCORE.INTER.norm>
-0.631852

>  <SCORE.INTRA>
0.905008

>  <SCORE.INTRA.DIHEDRAL>
1.81839

>  <SCORE.INTRA.DIHEDRAL.0>
7.41195e-08

>  <SCORE.INTRA.POLAR>
0

>  <SCORE.INTRA.POLAR.0>
0

>  <SCORE.INTRA.REPUL>
0

>  <SCORE.INTRA.REPUL.0>
0

>  <SCORE.INTRA.VDW>
-0.00418772

>  <SCORE.INTRA.VDW.0>
-0.0730897

>  <SCORE.INTRA.norm>
0.056563

>  <SCORE.RESTR>
0

>  <SCORE.RESTR.CAVITY>
0

>  <SCORE.RESTR.norm>
0

>  <SCORE.SYSTEM>
-1.50967

>  <SCORE.SYSTEM.CONST>
0

>  <SCORE.SYSTEM.DIHEDRAL>
0.318367

>  <SCORE.SYSTEM.POLAR>
-0.501958

>  <SCORE.SYSTEM.VDW>
0.0378073

>  <SCORE.SYSTEM.norm>
-0.0943541

>  <SCORE.heavy>
16

>  <SCORE.norm>
-0.669643

>  <enum_code>
T

>  <enum_smi>
O=C1C=CC=CC1=CNc1ccc(Cl)cc1

>  <sha256>
813ba6512c1cc078b45b435424e0b61f270be0ff8107213ae8328c50911fa2cc

>  <std_smi>
Oc1ccccc1/C=N/c1ccc(Cl)cc1

>  <uuid>
1346463c-88eb-407e-8e89-eafa57ac1942

$$$$
1346463c-88eb-407e-8e89-eafa57ac1942
  rDOCK(R)          3D
libRbt.so/2013.1/901 2013/11/27
 17 18  0  0  0  0  0  0  0  0999 V2000
   -4.2735   27.1633    2.9351 O   0  0  0  0  0  0
   -4.5523   27.8771    3.8928 C   0  0  0  0  0  0
   -5.5335   27.4064    4.9056 C   0  0  0  0  0  0
   -5.8522   28.1700    5.9590 C   0  0  0  0  0  0
   -5.2684   29.4733    6.1653 C   0  0  0  0  0  0
   -4.3740   29.9839    5.3066 C   0  0  0  0  0  0
   -3.9551   29.2418    4.1288 C   0  0  0  0  0  0
   -3.0646   29.6811    3.2192 C   0  0  0  0  0  0
   -2.3722   30.8701    3.1818 N   0  0  0  0  0  0
   -1.4420   31.3278    2.2306 C   0  0  0  0  0  0
   -0.9139   32.6217    2.3817 C   0  0  0  0  0  0
    0.0149   33.1403    1.4729 C   0  0  0  0  0  0
    0.4296   32.3662    0.3952 C   0  0  0  0  0  0
    1.5710   32.9972   -0.7255 Cl  0  0  0  0  0  0
   -0.0773   31.0828    0.2225 C   0  0  0  0  0  0
   -1.0070   30.5693    1.1358 C   0  0  0  0  0  0
   -2.5520   31.5126    3.9435 H   0  0  0  0  0  0
  1  2  2  0  0  0
  2  3  1  0  0  0
  3  4  2  0  0  0
  4  5  1  0  0  0
  5  6  2  0  0  0
  6  7  1  0  0  0
  7  8  2  0  0  0
  8  9  1  0  0  0
  9 10  1  0  0  0
 10 11  2  0  0  0
 11 12  1  0  0  0
 12 13  2  0  0  0
 13 14  1  0  0  0
 13 15  1  0  0  0
 15 16  2  0  0  0
  7  2  1  0  0  0
 16 10  1  0  0  0
  9 17  1  0  0  0
M  END
>  <CHROM.0>
-59.88758699,69.21386600

>  <CHROM.1>
176.92091190,-2.16806024,30.48368998,2.58219142,-3.08651052,0.83678056,0.64634863

>  <Name>
1346463c-88eb-407e-8e89-eafa57ac1942

>  <RI>
3.35393e+07

>  <Rbt.Current_Directory>
/data/work/jku/5V6S/work/40/8dba899c20c42488f2b1a17844994e

>  <Rbt.Executable>
rbdock ($Id: //depot/dev/client3/rdock/2013.1/src/exe/rbdock.cxx#4 $)

>  <Rbt.Library>
libRbt.so (2013.1, Build901 2013/11/27)

>  <Rbt.Parameter_File>
/rDock_2013.1_src/data/scripts/dock.prm

>  <Rbt.Receptor>
docking.prm

>  <SCORE>
-12.7255

>  <SCORE.INTER>
-11.2285

>  <SCORE.INTER.CONST>
1

>  <SCORE.INTER.POLAR>
0

>  <SCORE.INTER.REPUL>
0

>  <SCORE.INTER.ROT>
1

>  <SCORE.INTER.VDW>
-17.6285

>  <SCORE.INTER.norm>
-0.701781

>  <SCORE.INTRA>
0.0162727

>  <SCORE.INTRA.DIHEDRAL>
0.0369072

>  <SCORE.INTRA.DIHEDRAL.0>
7.41195e-08

>  <SCORE.INTRA.POLAR>
0

>  <SCORE.INTRA.POLAR.0>
0

>  <SCORE.INTRA.REPUL>
0

>  <SCORE.INTRA.REPUL.0>
0

>  <SCORE.INTRA.VDW>
-0.0021809

>  <SCORE.INTRA.VDW.0>
-0.0730897

>  <SCORE.INTRA.norm>
0.00101704

>  <SCORE.RESTR>
0

>  <SCORE.RESTR.CAVITY>
0

>  <SCORE.RESTR.norm>
0

>  <SCORE.SYSTEM>
-1.51323

>  <SCORE.SYSTEM.CONST>
0

>  <SCORE.SYSTEM.DIHEDRAL>
0.41851

>  <SCORE.SYSTEM.POLAR>
-0.503098

>  <SCORE.SYSTEM.VDW>
-0.0119541

>  <SCORE.SYSTEM.norm>
-0.094577

>  <SCORE.heavy>
16

>  <SCORE.norm>
-0.795341

>  <enum_code>
T

>  <enum_smi>
O=C1C=CC=CC1=CNc1ccc(Cl)cc1

>  <sha256>
813ba6512c1cc078b45b435424e0b61f270be0ff8107213ae8328c50911fa2cc

>  <std_smi>
Oc1ccccc1/C=N/c1ccc(Cl)cc1

>  <uuid>
1346463c-88eb-407e-8e89-eafa57ac1942

$$$$
1346463c-88eb-407e-8e89-eafa57ac1942
  rDOCK(R)          3D
libRbt.so/2013.1/901 2013/11/27
 17 18  0  0  0  0  0  0  0  0999 V2000
   -0.0085   30.0100    0.6922 O   0  0  0  0  0  0
   -0.3730   30.9384    1.4060 C   0  0  0  0  0  0
   -0.0834   32.3397    1.0029 C   0  0  0  0  0  0
   -0.4725   33.3683    1.7677 C   0  0  0  0  0  0
   -1.1843   33.1747    3.0078 C   0  0  0  0  0  0
   -1.4913   31.9484    3.4550 C   0  0  0  0  0  0
   -1.1178   30.7602    2.7054 C   0  0  0  0  0  0
   -1.3870   29.4960    3.0831 C   0  0  0  0  0  0
   -2.0432   29.0433    4.2052 N   0  0  0  0  0  0
   -2.3237   27.7219    4.5987 C   0  0  0  0  0  0
   -1.5961   26.6782    4.0009 C   0  0  0  0  0  0
   -1.8235   25.3413    4.3450 C   0  0  0  0  0  0
   -2.7873   25.0298    5.2972 C   0  0  0  0  0  0
   -3.0718   23.3888    5.7248 Cl  0  0  0  0  0  0
   -3.5212   26.0433    5.9038 C   0  0  0  0  0  0
   -3.2889   27.3799    5.5550 C   0  0  0  0  0  0
   -2.3743   29.7560    4.8437 H   0  0  0  0  0  0
  1  2  2  0  0  0
  2  3  1  0  0  0
  3  4  2  0  0  0
  4  5  1  0  0  0
  5  6  2  0  0  0
  6  7  1  0  0  0
  7  8  2  0  0  0
  8  9  1  0  0  0
  9 10  1  0  0  0
 10 11  2  0  0  0
 11 12  1  0  0  0
 12 13  2  0  0  0
 13 14  1  0  0  0
 13 15  1  0  0  0
 15 16  2  0  0  0
  7  2  1  0  0  0
 16 10  1  0  0  0
  9 17  1  0  0  0
M  END
>  <CHROM.0>
-59.88758699,68.41811315

>  <CHROM.1>
17.75049540,-1.78112648,28.40470659,3.73031247,-1.06969497,-0.98074637,3.12515156

>  <Name>
1346463c-88eb-407e-8e89-eafa57ac1942

>  <RI>
3.35393e+07

>  <Rbt.Current_Directory>
/data/work/jku/5V6S/work/40/8dba899c20c42488f2b1a17844994e

>  <Rbt.Executable>
rbdock ($Id: //depot/dev/client3/rdock/2013.1/src/exe/rbdock.cxx#4 $)

>  <Rbt.Library>
libRbt.so (2013.1, Build901 2013/11/27)

>  <Rbt.Parameter_File>
/rDock_2013.1_src/data/scripts/dock.prm

>  <Rbt.Receptor>
docking.prm

>  <SCORE>
-11.7639

>  <SCORE.INTER>
-10.8825

>  <SCORE.INTER.CONST>
1

>  <SCORE.INTER.POLAR>
0

>  <SCORE.INTER.REPUL>
0.00173334

>  <SCORE.INTER.ROT>
1

>  <SCORE.INTER.VDW>
-17.2912

>  <SCORE.INTER.norm>
-0.680156

>  <SCORE.INTRA>
0.631085

>  <SCORE.INTRA.DIHEDRAL>
1.18985

>  <SCORE.INTRA.DIHEDRAL.0>
7.41195e-08

>  <SCORE.INTRA.POLAR>
0

>  <SCORE.INTRA.POLAR.0>
0

>  <SCORE.INTRA.REPUL>
0

>  <SCORE.INTRA.REPUL.0>
0

>  <SCORE.INTRA.VDW>
0.0361586

>  <SCORE.INTRA.VDW.0>
-0.0730897

>  <SCORE.INTRA.norm>
0.0394428

>  <SCORE.RESTR>
0

>  <SCORE.RESTR.CAVITY>
0

>  <SCORE.RESTR.norm>
0

>  <SCORE.SYSTEM>
-1.51252

>  <SCORE.SYSTEM.CONST>
0

>  <SCORE.SYSTEM.DIHEDRAL>
0.351709

>  <SCORE.SYSTEM.POLAR>
-0.502493

>  <SCORE.SYSTEM.VDW>
0.0200998

>  <SCORE.SYSTEM.norm>
-0.0945325

>  <SCORE.heavy>
16

>  <SCORE.norm>
-0.735245

>  <enum_code>
T

>  <enum_smi>
O=C1C=CC=CC1=CNc1ccc(Cl)cc1

>  <sha256>
813ba6512c1cc078b45b435424e0b61f270be0ff8107213ae8328c50911fa2cc

>  <std_smi>
Oc1ccccc1/C=N/c1ccc(Cl)cc1

>  <uuid>
1346463c-88eb-407e-8e89-eafa57ac1942

$$$$
1346463c-88eb-407e-8e89-eafa57ac1942
  rDOCK(R)          3D
libRbt.so/2013.1/901 2013/11/27
 17 18  0  0  0  0  0  0  0  0999 V2000
   -0.0957   30.1671    0.7435 O   0  0  0  0  0  0
   -0.4863   31.0390    1.5127 C   0  0  0  0  0  0
   -0.2697   32.4714    1.1790 C   0  0  0  0  0  0
   -0.6883   33.4393    2.0048 C   0  0  0  0  0  0
   -1.3631   33.1484    3.2466 C   0  0  0  0  0  0
   -1.6040   31.8875    3.6340 C   0  0  0  0  0  0
   -1.1935   30.7587    2.8151 C   0  0  0  0  0  0
   -1.3965   29.4653    3.1303 C   0  0  0  0  0  0
   -2.0065   28.9246    4.2394 N   0  0  0  0  0  0
   -2.2179   27.5729    4.5675 C   0  0  0  0  0  0
   -3.2189   27.2615    5.5039 C   0  0  0  0  0  0
   -3.4824   25.9388    5.8762 C   0  0  0  0  0  0
   -2.7433   24.9048    5.3129 C   0  0  0  0  0  0
   -3.0619   23.2769    5.7658 Cl  0  0  0  0  0  0
   -1.7472   25.1855    4.3841 C   0  0  0  0  0  0
   -1.4881   26.5118    4.0155 C   0  0  0  0  0  0
   -2.3556   29.5868    4.9212 H   0  0  0  0  0  0
  1  2  2  0  0  0
  2  3  1  0  0  0
  3  4  2  0  0  0
  4  5  1  0  0  0
  5  6  2  0  0  0
  6  7  1  0  0  0
  7  8  2  0  0  0
  8  9  1  0  0  0
  9 10  1  0  0  0
 10 11  2  0  0  0
 11 12  1  0  0  0
 12 13  2  0  0  0
 13 14  1  0  0  0
 13 15  1  0  0  0
 15 16  2  0  0  0
  7  2  1  0  0  0
 16 10  1  0  0  0
  9 17  1  0  0  0
M  END
>  <CHROM.0>
-59.88758699,68.60753965

>  <CHROM.1>
-159.58882007,-1.80839486,28.35558298,3.80089164,-1.11162397,-0.98777581
3.11384895

>  <Name>
1346463c-88eb-407e-8e89-eafa57ac1942

>  <RI>
3.35393e+07

>  <Rbt.Current_Directory>
/data/work/jku/5V6S/work/40/8dba899c20c42488f2b1a17844994e

>  <Rbt.Executable>
rbdock ($Id: //depot/dev/client3/rdock/2013.1/src/exe/rbdock.cxx#4 $)

>  <Rbt.Library>
libRbt.so (2013.1, Build901 2013/11/27)

>  <Rbt.Parameter_File>
/rDock_2013.1_src/data/scripts/dock.prm

>  <Rbt.Receptor>
docking.prm

>  <SCORE>
-11.8274

>  <SCORE.INTER>
-11.0227

>  <SCORE.INTER.CONST>
1

>  <SCORE.INTER.POLAR>
0

>  <SCORE.INTER.REPUL>
0

>  <SCORE.INTER.ROT>
1

>  <SCORE.INTER.VDW>
-17.4227

>  <SCORE.INTER.norm>
-0.688922

>  <SCORE.INTRA>
0.708586

>  <SCORE.INTRA.DIHEDRAL>
1.55701

>  <SCORE.INTRA.DIHEDRAL.0>
7.41195e-08

>  <SCORE.INTRA.POLAR>
0

>  <SCORE.INTRA.POLAR.0>
0

>  <SCORE.INTRA.REPUL>
0

>  <SCORE.INTRA.REPUL.0>
0

>  <SCORE.INTRA.VDW>
-0.0699184

>  <SCORE.INTRA.VDW.0>
-0.0730897

>  <SCORE.INTRA.norm>
0.0442866

>  <SCORE.RESTR>
0

>  <SCORE.RESTR.CAVITY>
0

>  <SCORE.RESTR.norm>
0

>  <SCORE.SYSTEM>
-1.51324

>  <SCORE.SYSTEM.CONST>
0

>  <SCORE.SYSTEM.DIHEDRAL>
0.367103

>  <SCORE.SYSTEM.POLAR>
-0.502684

>  <SCORE.SYSTEM.VDW>
0.0123371

>  <SCORE.SYSTEM.norm>
-0.0945772

>  <SCORE.heavy>
16

>  <SCORE.norm>
-0.739212

>  <enum_code>
T

>  <enum_smi>
O=C1C=CC=CC1=CNc1ccc(Cl)cc1

>  <sha256>
813ba6512c1cc078b45b435424e0b61f270be0ff8107213ae8328c50911fa2cc

>  <std_smi>
Oc1ccccc1/C=N/c1ccc(Cl)cc1

>  <uuid>
1346463c-88eb-407e-8e89-eafa57ac1942

$$$$
9c5d05a2-dae4-415e-9a94-9eca990130d2
  rDOCK(R)          3D
libRbt.so/2013.1/901 2013/11/27
 16 17  0  0  0  0  0  0  0  0999 V2000
   -2.3271   26.7117    4.7091 O   0  0  0  0  0  0
   -3.1151   27.5287    5.1858 C   0  0  0  0  0  0
   -4.5395   27.1349    5.3335 C   0  0  0  0  0  0
   -5.4460   28.0368    5.7272 C   0  0  0  0  0  0
   -5.1046   29.4026    6.0289 C   0  0  0  0  0  0
   -3.8347   29.8260    5.9871 C   0  0  0  0  0  0
   -2.6808   28.9278    5.6164 C   0  0  0  0  0  0
   -1.9076   29.6133    4.5156 C   0  0  0  0  0  0
   -2.3510   30.7027    3.9696 N   0  0  0  0  0  0
   -1.5549   31.2417    2.9515 C   0  0  0  0  0  0
   -1.1558   30.4384    1.8800 C   0  0  0  0  0  0
   -0.3739   30.9692    0.8507 C   0  0  0  0  0  0
    0.0006   32.3112    0.8904 C   0  0  0  0  0  0
    0.9636   32.9670   -0.3753 Cl  0  0  0  0  0  0
   -0.4040   33.1261    1.9461 C   0  0  0  0  0  0
   -1.1860   32.5905    2.9727 C   0  0  0  0  0  0
  1  2  2  0  0  0
  2  3  1  0  0  0
  3  4  2  0  0  0
  4  5  1  0  0  0
  5  6  2  0  0  0
  6  7  1  0  0  0
  7  8  1  0  0  0
  8  9  2  0  0  0
  9 10  1  0  0  0
 10 11  2  0  0  0
 11 12  1  0  0  0
 12 13  2  0  0  0
 13 14  1  0  0  0
 13 15  1  0  0  0
 15 16  2  0  0  0
  7  2  1  0  0  0
 16 10  1  0  0  0
M  END
>  <CHROM.0>
-59.88758699,69.23455481

>  <CHROM.1>
117.55974574,52.54257753,-1.89405127,30.32917390,3.27173763,-2.51375572,0.84171881
-0.04907847

>  <Name>
9c5d05a2-dae4-415e-9a94-9eca990130d2

>  <RI>
4.31895e+07

>  <Rbt.Current_Directory>
/data/work/jku/5V6S/work/40/8dba899c20c42488f2b1a17844994e

>  <Rbt.Executable>
rbdock ($Id: //depot/dev/client3/rdock/2013.1/src/exe/rbdock.cxx#4 $)

>  <Rbt.Library>
libRbt.so (2013.1, Build901 2013/11/27)

>  <Rbt.Parameter_File>
/rDock_2013.1_src/data/scripts/dock.prm

>  <Rbt.Receptor>
docking.prm

>  <SCORE>
-13.3206

>  <SCORE.INTER>
-11.8575

>  <SCORE.INTER.CONST>
1

>  <SCORE.INTER.POLAR>
0

>  <SCORE.INTER.REPUL>
0.0147821

>  <SCORE.INTER.ROT>
2

>  <SCORE.INTER.VDW>
-19.3314

>  <SCORE.INTER.norm>
-0.741094

>  <SCORE.INTRA>
0.0501205

>  <SCORE.INTRA.DIHEDRAL>
-2.53976

>  <SCORE.INTRA.DIHEDRAL.0>
7.5287

>  <SCORE.INTRA.POLAR>
0

>  <SCORE.INTRA.POLAR.0>
0

>  <SCORE.INTRA.REPUL>
0

>  <SCORE.INTRA.REPUL.0>
0

>  <SCORE.INTRA.VDW>
1.32

>  <SCORE.INTRA.VDW.0>
-0.496242

>  <SCORE.INTRA.norm>
0.00313253

>  <SCORE.RESTR>
0

>  <SCORE.RESTR.CAVITY>
0

>  <SCORE.RESTR.norm>
0

>  <SCORE.SYSTEM>
-1.51317

>  <SCORE.SYSTEM.CONST>
0

>  <SCORE.SYSTEM.DIHEDRAL>
0.420321

>  <SCORE.SYSTEM.POLAR>
-0.503107

>  <SCORE.SYSTEM.VDW>
-0.0127681

>  <SCORE.SYSTEM.norm>
-0.0945732

>  <SCORE.heavy>
16

>  <SCORE.norm>
-0.832535

>  <enum_code>
T

>  <enum_smi>
O=C1C=CC=CC1C=Nc1ccc(Cl)cc1

>  <sha256>
813ba6512c1cc078b45b435424e0b61f270be0ff8107213ae8328c50911fa2cc

>  <std_smi>
Oc1ccccc1/C=N/c1ccc(Cl)cc1

>  <uuid>
9c5d05a2-dae4-415e-9a94-9eca990130d2

$$$$
9c5d05a2-dae4-415e-9a94-9eca990130d2
  rDOCK(R)          3D
libRbt.so/2013.1/901 2013/11/27
 16 17  0  0  0  0  0  0  0  0999 V2000
   -1.0762   27.3886    6.3340 O   0  0  0  0  0  0
   -2.2291   27.2057    5.9429 C   0  0  0  0  0  0
   -2.7973   25.8363    6.0309 C   0  0  0  0  0  0
   -3.9969   25.5739    5.4997 C   0  0  0  0  0  0
   -4.7896   26.5754    4.8353 C   0  0  0  0  0  0
   -4.3843   27.8502    4.7694 C   0  0  0  0  0  0
   -3.0838   28.3307    5.3638 C   0  0  0  0  0  0
   -2.3360   29.0710    4.2811 C   0  0  0  0  0  0
   -2.2478   30.3647    4.2984 N   0  0  0  0  0  0
   -1.5399   30.9413    3.2367 C   0  0  0  0  0  0
   -1.1898   30.1645    2.1293 C   0  0  0  0  0  0
   -0.4966   30.7326    1.0573 C   0  0  0  0  0  0
   -0.1622   32.0853    1.0909 C   0  0  0  0  0  0
    0.6917   32.7871   -0.2274 Cl  0  0  0  0  0  0
   -0.5192   32.8738    2.1832 C   0  0  0  0  0  0
   -1.2126   32.3009    3.2524 C   0  0  0  0  0  0
  1  2  2  0  0  0
  2  3  1  0  0  0
  3  4  2  0  0  0
  4  5  1  0  0  0
  5  6  2  0  0  0
  6  7  1  0  0  0
  7  8  1  0  0  0
  8  9  2  0  0  0
  9 10  1  0  0  0
 10 11  2  0  0  0
 11 12  1  0  0  0
 12 13  2  0  0  0
 13 14  1  0  0  0
 13 15  1  0  0  0
 15 16  2  0  0  0
  7  2  1  0  0  0
 16 10  1  0  0  0
M  END
>  <CHROM.0>
-59.88758699,68.18305684

>  <CHROM.1>
-129.40903398,11.39576484,-1.70209657,29.67951153,3.40909462,-2.14315039
-0.70537791,-1.10841710

>  <Name>
9c5d05a2-dae4-415e-9a94-9eca990130d2

>  <RI>
4.31895e+07

>  <Rbt.Current_Directory>
/data/work/jku/5V6S/work/40/8dba899c20c42488f2b1a17844994e

>  <Rbt.Executable>
rbdock ($Id: //depot/dev/client3/rdock/2013.1/src/exe/rbdock.cxx#4 $)

>  <Rbt.Library>
libRbt.so (2013.1, Build901 2013/11/27)

>  <Rbt.Parameter_File>
/rDock_2013.1_src/data/scripts/dock.prm

>  <Rbt.Receptor>
docking.prm

>  <SCORE>
-13.5661

>  <SCORE.INTER>
-11.2019

>  <SCORE.INTER.CONST>
1

>  <SCORE.INTER.POLAR>
0

>  <SCORE.INTER.REPUL>
0

>  <SCORE.INTER.ROT>
2

>  <SCORE.INTER.VDW>
-18.6019

>  <SCORE.INTER.norm>
-0.70012

>  <SCORE.INTRA>
-0.853023

>  <SCORE.INTRA.DIHEDRAL>
-6.21084

>  <SCORE.INTRA.DIHEDRAL.0>
7.5287

>  <SCORE.INTRA.POLAR>
0

>  <SCORE.INTRA.POLAR.0>
0

>  <SCORE.INTRA.REPUL>
0

>  <SCORE.INTRA.REPUL.0>
0

>  <SCORE.INTRA.VDW>
2.2524

>  <SCORE.INTRA.VDW.0>
-0.496242

>  <SCORE.INTRA.norm>
-0.0533139

>  <SCORE.RESTR>
0

>  <SCORE.RESTR.CAVITY>
0

>  <SCORE.RESTR.norm>
0

>  <SCORE.SYSTEM>
-1.51116

>  <SCORE.SYSTEM.CONST>
0

>  <SCORE.SYSTEM.DIHEDRAL>
0.333053

>  <SCORE.SYSTEM.POLAR>
-0.502215

>  <SCORE.SYSTEM.VDW>
0.029849

>  <SCORE.SYSTEM.norm>
-0.0944472

>  <SCORE.heavy>
16

>  <SCORE.norm>
-0.847882

>  <enum_code>
T

>  <enum_smi>
O=C1C=CC=CC1C=Nc1ccc(Cl)cc1

>  <sha256>
813ba6512c1cc078b45b435424e0b61f270be0ff8107213ae8328c50911fa2cc

>  <std_smi>
Oc1ccccc1/C=N/c1ccc(Cl)cc1

>  <uuid>
9c5d05a2-dae4-415e-9a94-9eca990130d2

$$$$
9c5d05a2-dae4-415e-9a94-9eca990130d2
  rDOCK(R)          3D
libRbt.so/2013.1/901 2013/11/27
 16 17  0  0  0  0  0  0  0  0999 V2000
   -2.6698   27.2705    6.0749 O   0  0  0  0  0  0
   -1.9159   26.3561    5.7413 C   0  0  0  0  0  0
   -1.2854   25.5349    6.8060 C   0  0  0  0  0  0
   -0.3644   24.6182    6.4873 C   0  0  0  0  0  0
    0.0546   24.3748    5.1315 C   0  0  0  0  0  0
   -0.5097   25.0224    4.1039 C   0  0  0  0  0  0
   -1.6014   26.0485    4.2791 C   0  0  0  0  0  0
   -1.1719   27.2975    3.5474 C   0  0  0  0  0  0
   -1.9163   28.3593    3.5495 N   0  0  0  0  0  0
   -1.4207   29.4522    2.8278 C   0  0  0  0  0  0
   -0.7901   29.2467    1.5979 C   0  0  0  0  0  0
   -0.3051   30.3309    0.8618 C   0  0  0  0  0  0
   -0.4615   31.6251    1.3549 C   0  0  0  0  0  0
    0.1352   32.9616    0.4508 Cl  0  0  0  0  0  0
   -1.1022   31.8438    2.5731 C   0  0  0  0  0  0
   -1.5856   30.7563    3.3051 C   0  0  0  0  0  0
  1  2  2  0  0  0
  2  3  1  0  0  0
  3  4  2  0  0  0
  4  5  1  0  0  0
  5  6  2  0  0  0
  6  7  1  0  0  0
  7  8  1  0  0  0
  8  9  2  0  0  0
  9 10  1  0  0  0
 10 11  2  0  0  0
 11 12  1  0  0  0
 12 13  2  0  0  0
 13 14  1  0  0  0
 13 15  1  0  0  0
 15 16  2  0  0  0
  7  2  1  0  0  0
 16 10  1  0  0  0
M  END
>  <CHROM.0>
-59.88758699,69.42724185

>  <CHROM.1>
-54.34613339,40.00453463,-0.96316298,28.63177637,3.39188420,1.73097734,-0.89907614
2.66406375

>  <Name>
9c5d05a2-dae4-415e-9a94-9eca990130d2

>  <RI>
4.31895e+07

>  <Rbt.Current_Directory>
/data/work/jku/5V6S/work/40/8dba899c20c42488f2b1a17844994e

>  <Rbt.Executable>
rbdock ($Id: //depot/dev/client3/rdock/2013.1/src/exe/rbdock.cxx#4 $)

>  <Rbt.Library>
libRbt.so (2013.1, Build901 2013/11/27)

>  <Rbt.Parameter_File>
/rDock_2013.1_src/data/scripts/dock.prm

>  <Rbt.Receptor>
docking.prm

>  <SCORE>
-12.9288

>  <SCORE.INTER>
-10.7274

>  <SCORE.INTER.CONST>
1

>  <SCORE.INTER.POLAR>
0

>  <SCORE.INTER.REPUL>
0

>  <SCORE.INTER.ROT>
2

>  <SCORE.INTER.VDW>
-18.1274

>  <SCORE.INTER.norm>
-0.670464

>  <SCORE.INTRA>
-0.688925

>  <SCORE.INTRA.DIHEDRAL>
-3.35373

>  <SCORE.INTRA.DIHEDRAL.0>
7.5287

>  <SCORE.INTRA.POLAR>
0

>  <SCORE.INTRA.POLAR.0>
0

>  <SCORE.INTRA.REPUL>
0

>  <SCORE.INTRA.REPUL.0>
0

>  <SCORE.INTRA.VDW>
0.987939

>  <SCORE.INTRA.VDW.0>
-0.496242

>  <SCORE.INTRA.norm>
-0.0430578

>  <SCORE.RESTR>
0

>  <SCORE.RESTR.CAVITY>
0

>  <SCORE.RESTR.norm>
0

>  <SCORE.SYSTEM>
-1.51241

>  <SCORE.SYSTEM.CONST>
0

>  <SCORE.SYSTEM.DIHEDRAL>
0.437369

>  <SCORE.SYSTEM.POLAR>
-0.503173

>  <SCORE.SYSTEM.VDW>
-0.0203035

>  <SCORE.SYSTEM.norm>
-0.0945256

>  <SCORE.heavy>
16

>  <SCORE.norm>
-0.808047

>  <enum_code>
T

>  <enum_smi>
O=C1C=CC=CC1C=Nc1ccc(Cl)cc1

>  <sha256>
813ba6512c1cc078b45b435424e0b61f270be0ff8107213ae8328c50911fa2cc

>  <std_smi>
Oc1ccccc1/C=N/c1ccc(Cl)cc1

>  <uuid>
9c5d05a2-dae4-415e-9a94-9eca990130d2

$$$$
9c5d05a2-dae4-415e-9a94-9eca990130d2
  rDOCK(R)          3D
libRbt.so/2013.1/901 2013/11/27
 16 17  0  0  0  0  0  0  0  0999 V2000
    0.0622   30.2777    0.4324 O   0  0  0  0  0  0
   -0.3654   31.1487    1.1901 C   0  0  0  0  0  0
    0.2850   32.4837    1.1722 C   0  0  0  0  0  0
   -0.0678   33.4123    2.0685 C   0  0  0  0  0  0
   -1.0746   33.1826    3.0717 C   0  0  0  0  0  0
   -1.7585   32.0320    3.1179 C   0  0  0  0  0  0
   -1.5272   30.8991    2.1491 C   0  0  0  0  0  0
   -1.2946   29.6478    2.9612 C   0  0  0  0  0  0
   -1.9701   29.4225    4.0450 N   0  0  0  0  0  0
   -1.6602   28.2356    4.7204 C   0  0  0  0  0  0
   -1.8378   28.1545    6.1040 C   0  0  0  0  0  0
   -1.5463   26.9705    6.7864 C   0  0  0  0  0  0
   -1.0850   25.8618    6.0788 C   0  0  0  0  0  0
   -0.7249   24.4031    6.9168 Cl  0  0  0  0  0  0
   -0.9183   25.9258    4.6966 C   0  0  0  0  0  0
   -1.2115   27.1120    4.0190 C   0  0  0  0  0  0
  1  2  2  0  0  0
  2  3  1  0  0  0
  3  4  2  0  0  0
  4  5  1  0  0  0
  5  6  2  0  0  0
  6  7  1  0  0  0
  7  8  1  0  0  0
  8  9  2  0  0  0
  9 10  1  0  0  0
 10 11  2  0  0  0
 11 12  1  0  0  0
 12 13  2  0  0  0
 13 14  1  0  0  0
 13 15  1  0  0  0
 15 16  2  0  0  0
  7  2  1  0  0  0
 16 10  1  0  0  0
M  END
>  <CHROM.0>
-59.88758699,68.60087770

>  <CHROM.1>
162.97269541,151.65990916,-1.00241490,28.87123722,3.98559426,-1.43345363
-1.14765815,2.66560952

>  <Name>
9c5d05a2-dae4-415e-9a94-9eca990130d2

>  <RI>
4.31895e+07

>  <Rbt.Current_Directory>
/data/work/jku/5V6S/work/40/8dba899c20c42488f2b1a17844994e

>  <Rbt.Executable>
rbdock ($Id: //depot/dev/client3/rdock/2013.1/src/exe/rbdock.cxx#4 $)

>  <Rbt.Library>
libRbt.so (2013.1, Build901 2013/11/27)

>  <Rbt.Parameter_File>
/rDock_2013.1_src/data/scripts/dock.prm

>  <Rbt.Receptor>
docking.prm

>  <SCORE>
-14.2447

>  <SCORE.INTER>
-12.2063

>  <SCORE.INTER.CONST>
1

>  <SCORE.INTER.POLAR>
0

>  <SCORE.INTER.REPUL>
0

>  <SCORE.INTER.ROT>
2

>  <SCORE.INTER.VDW>
-19.6063

>  <SCORE.INTER.norm>
-0.762896

>  <SCORE.INTRA>
-0.525198

>  <SCORE.INTRA.DIHEDRAL>
-4.48822

>  <SCORE.INTRA.DIHEDRAL.0>
7.5287

>  <SCORE.INTRA.POLAR>
0

>  <SCORE.INTRA.POLAR.0>
0

>  <SCORE.INTRA.REPUL>
0

>  <SCORE.INTRA.REPUL.0>
0

>  <SCORE.INTRA.VDW>
1.71891

>  <SCORE.INTRA.VDW.0>
-0.496242

>  <SCORE.INTRA.norm>
-0.0328248

>  <SCORE.RESTR>
0

>  <SCORE.RESTR.CAVITY>
0

>  <SCORE.RESTR.norm>
0

>  <SCORE.SYSTEM>
-1.51322

>  <SCORE.SYSTEM.CONST>
0

>  <SCORE.SYSTEM.DIHEDRAL>
0.366556

>  <SCORE.SYSTEM.POLAR>
-0.502677

>  <SCORE.SYSTEM.VDW>
0.0126087

>  <SCORE.SYSTEM.norm>
-0.094576

>  <SCORE.heavy>
16

>  <SCORE.norm>
-0.890297

>  <enum_code>
T

>  <enum_smi>
O=C1C=CC=CC1C=Nc1ccc(Cl)cc1

>  <sha256>
813ba6512c1cc078b45b435424e0b61f270be0ff8107213ae8328c50911fa2cc

>  <std_smi>
Oc1ccccc1/C=N/c1ccc(Cl)cc1

>  <uuid>
9c5d05a2-dae4-415e-9a94-9eca990130d2

$$$$
9c5d05a2-dae4-415e-9a94-9eca990130d2
  rDOCK(R)          3D
libRbt.so/2013.1/901 2013/11/27
 16 17  0  0  0  0  0  0  0  0999 V2000
   -1.2167   27.7403    6.2474 O   0  0  0  0  0  0
   -2.3218   27.4529    5.7873 C   0  0  0  0  0  0
   -2.8005   26.0531    5.9182 C   0  0  0  0  0  0
   -3.9362   25.6753    5.3202 C   0  0  0  0  0  0
   -4.7431   26.5782    4.5414 C   0  0  0  0  0  0
   -4.4217   27.8733    4.4267 C   0  0  0  0  0  0
   -3.2053   28.4791    5.0815 C   0  0  0  0  0  0
   -2.4304   29.2099    4.0114 C   0  0  0  0  0  0
   -2.1469   30.4690    4.1375 N   0  0  0  0  0  0
   -1.4347   31.0423    3.0769 C   0  0  0  0  0  0
   -1.0752   30.2606    1.9758 C   0  0  0  0  0  0
   -0.3776   30.8253    0.9049 C   0  0  0  0  0  0
   -0.0481   32.1793    0.9330 C   0  0  0  0  0  0
    0.8112   32.8769   -0.3840 Cl  0  0  0  0  0  0
   -0.4144   32.9725    2.0188 C   0  0  0  0  0  0
   -1.1121   32.4030    3.0870 C   0  0  0  0  0  0
  1  2  2  0  0  0
  2  3  1  0  0  0
  3  4  2  0  0  0
  4  5  1  0  0  0
  5  6  2  0  0  0
  6  7  1  0  0  0
  7  8  1  0  0  0
  8  9  2  0  0  0
  9 10  1  0  0  0
 10 11  2  0  0  0
 11 12  1  0  0  0
 12 13  2  0  0  0
 13 14  1  0  0  0
 13 15  1  0  0  0
 15 16  2  0  0  0
  7  2  1  0  0  0
 16 10  1  0  0  0
M  END
>  <CHROM.0>
-59.88758699,69.37420386

>  <CHROM.1>
-111.83878381,-0.07723274,-1.66459788,29.80412776,3.22596495,-2.30903262
-0.87246765,-1.32146077

>  <Name>
9c5d05a2-dae4-415e-9a94-9eca990130d2

>  <RI>
4.31895e+07

>  <Rbt.Current_Directory>
/data/work/jku/5V6S/work/40/8dba899c20c42488f2b1a17844994e

>  <Rbt.Executable>
rbdock ($Id: //depot/dev/client3/rdock/2013.1/src/exe/rbdock.cxx#4 $)

>  <Rbt.Library>
libRbt.so (2013.1, Build901 2013/11/27)

>  <Rbt.Parameter_File>
/rDock_2013.1_src/data/scripts/dock.prm

>  <Rbt.Receptor>
docking.prm

>  <SCORE>
-13.5815

>  <SCORE.INTER>
-11.2026

>  <SCORE.INTER.CONST>
1

>  <SCORE.INTER.POLAR>
0

>  <SCORE.INTER.REPUL>
0.000224365

>  <SCORE.INTER.ROT>
2

>  <SCORE.INTER.VDW>
-18.6037

>  <SCORE.INTER.norm>
-0.700164

>  <SCORE.INTRA>
-0.866255

>  <SCORE.INTRA.DIHEDRAL>
-6.45657

>  <SCORE.INTRA.DIHEDRAL.0>
7.5287

>  <SCORE.INTRA.POLAR>
0

>  <SCORE.INTRA.POLAR.0>
0

>  <SCORE.INTRA.REPUL>
0

>  <SCORE.INTRA.REPUL.0>
0

>  <SCORE.INTRA.VDW>
2.36203

>  <SCORE.INTRA.VDW.0>
-0.496242

>  <SCORE.INTRA.norm>
-0.054141

>  <SCORE.RESTR>
0

>  <SCORE.RESTR.CAVITY>
0

>  <SCORE.RESTR.norm>
0

>  <SCORE.SYSTEM>
-1.51265

>  <SCORE.SYSTEM.CONST>
0

>  <SCORE.SYSTEM.DIHEDRAL>
0.432644

>  <SCORE.SYSTEM.POLAR>
-0.503158

>  <SCORE.SYSTEM.VDW>
-0.0182377

>  <SCORE.SYSTEM.norm>
-0.0945408

>  <SCORE.heavy>
16

>  <SCORE.norm>
-0.848845

>  <enum_code>
T

>  <enum_smi>
O=C1C=CC=CC1C=Nc1ccc(Cl)cc1

>  <sha256>
813ba6512c1cc078b45b435424e0b61f270be0ff8107213ae8328c50911fa2cc

>  <std_smi>
Oc1ccccc1/C=N/c1ccc(Cl)cc1

>  <uuid>
9c5d05a2-dae4-415e-9a94-9eca990130d2

$$$$
8ded0419-7ed8-496a-94cd-f7b74d9c3874
  rDOCK(R)          3D
libRbt.so/2013.1/901 2013/11/27
 16 17  0  0  0  0  0  0  0  0999 V2000
   -3.9899   27.1447    4.8841 O   0  0  0  0  0  0
   -3.1435   26.2524    4.9294 C   0  0  0  0  0  0
   -3.4663   24.9545    5.6672 C   0  0  0  0  0  0
   -2.3655   23.9400    5.6591 C   0  0  0  0  0  0
   -1.1923   24.1519    5.0543 C   0  0  0  0  0  0
   -0.9211   25.3884    4.3672 C   0  0  0  0  0  0
   -1.8035   26.3996    4.2825 C   0  0  0  0  0  0
   -1.3558   27.6020    3.5348 C   0  0  0  0  0  0
   -2.0381   28.6905    3.3934 N   0  0  0  0  0  0
   -1.4352   29.7107    2.6491 C   0  0  0  0  0  0
   -0.7618   29.4128    1.4610 C   0  0  0  0  0  0
   -0.1688   30.4308    0.7099 C   0  0  0  0  0  0
   -0.2603   31.7518    1.1449 C   0  0  0  0  0  0
    0.4706   33.0075    0.2236 Cl  0  0  0  0  0  0
   -0.9446   32.0630    2.3187 C   0  0  0  0  0  0
   -1.5359   31.0411    3.0659 C   0  0  0  0  0  0
  1  2  2  0  0  0
  2  3  1  0  0  0
  3  4  1  0  0  0
  4  5  2  0  0  0
  5  6  1  0  0  0
  6  7  2  0  0  0
  7  8  1  0  0  0
  8  9  2  0  0  0
  9 10  1  0  0  0
 10 11  2  0  0  0
 11 12  1  0  0  0
 12 13  2  0  0  0
 13 14  1  0  0  0
 13 15  1  0  0  0
 15 16  2  0  0  0
  7  2  1  0  0  0
 16 10  1  0  0  0
M  END
>  <CHROM.0>
-59.88758699,68.14395419

>  <CHROM.1>
3.00664894,43.05995911,-1.40052620,28.67586008,3.06465820,1.91388597,-0.57221146
2.78607673

>  <Name>
8ded0419-7ed8-496a-94cd-f7b74d9c3874

>  <RI>
3.75575e+07

>  <Rbt.Current_Directory>
/data/work/jku/5V6S/work/40/8dba899c20c42488f2b1a17844994e

>  <Rbt.Executable>
rbdock ($Id: //depot/dev/client3/rdock/2013.1/src/exe/rbdock.cxx#4 $)

>  <Rbt.Library>
libRbt.so (2013.1, Build901 2013/11/27)

>  <Rbt.Parameter_File>
/rDock_2013.1_src/data/scripts/dock.prm

>  <Rbt.Receptor>
docking.prm

>  <SCORE>
-12.8051

>  <SCORE.INTER>
-10.4158

>  <SCORE.INTER.CONST>
1

>  <SCORE.INTER.POLAR>
0

>  <SCORE.INTER.REPUL>
0

>  <SCORE.INTER.ROT>
2

>  <SCORE.INTER.VDW>
-17.8158

>  <SCORE.INTER.norm>
-0.650989

>  <SCORE.INTRA>
-0.878434

>  <SCORE.INTRA.DIHEDRAL>
-3.49157

>  <SCORE.INTRA.DIHEDRAL.0>
6.39815

>  <SCORE.INTRA.POLAR>
0

>  <SCORE.INTRA.POLAR.0>
0

>  <SCORE.INTRA.REPUL>
0

>  <SCORE.INTRA.REPUL.0>
0

>  <SCORE.INTRA.VDW>
0.867351

>  <SCORE.INTRA.VDW.0>
-0.561489

>  <SCORE.INTRA.norm>
-0.0549021

>  <SCORE.RESTR>
0

>  <SCORE.RESTR.CAVITY>
0

>  <SCORE.RESTR.norm>
0

>  <SCORE.SYSTEM>
-1.51088

>  <SCORE.SYSTEM.CONST>
0

>  <SCORE.SYSTEM.DIHEDRAL>
0.329998

>  <SCORE.SYSTEM.POLAR>
-0.502164

>  <SCORE.SYSTEM.VDW>
0.0314834

>  <SCORE.SYSTEM.norm>
-0.0944298

>  <SCORE.heavy>
16

>  <SCORE.norm>
-0.800321

>  <enum_code>
T

>  <enum_smi>
O=C1CC=CC=C1C=Nc1ccc(Cl)cc1

>  <sha256>
813ba6512c1cc078b45b435424e0b61f270be0ff8107213ae8328c50911fa2cc

>  <std_smi>
Oc1ccccc1/C=N/c1ccc(Cl)cc1

>  <uuid>
8ded0419-7ed8-496a-94cd-f7b74d9c3874

$$$$
8ded0419-7ed8-496a-94cd-f7b74d9c3874
  rDOCK(R)          3D
libRbt.so/2013.1/901 2013/11/27
 16 17  0  0  0  0  0  0  0  0999 V2000
   -1.7219   31.8733    4.5885 O   0  0  0  0  0  0
   -1.3020   31.8629    3.4317 C   0  0  0  0  0  0
   -0.9142   33.1823    2.7668 C   0  0  0  0  0  0
   -0.4170   33.0518    1.3609 C   0  0  0  0  0  0
   -0.3195   31.8743    0.7356 C   0  0  0  0  0  0
   -0.6942   30.6486    1.3927 C   0  0  0  0  0  0
   -1.1590   30.5942    2.6534 C   0  0  0  0  0  0
   -1.4970   29.2444    3.1719 C   0  0  0  0  0  0
   -1.9362   28.9893    4.3604 N   0  0  0  0  0  0
   -2.1956   27.6457    4.6529 C   0  0  0  0  0  0
   -1.3166   26.6480    4.2219 C   0  0  0  0  0  0
   -1.5670   25.3067    4.5223 C   0  0  0  0  0  0
   -2.6954   24.9655    5.2661 C   0  0  0  0  0  0
   -3.0078   23.3146    5.6360 Cl  0  0  0  0  0  0
   -3.5695   25.9533    5.7166 C   0  0  0  0  0  0
   -3.3142   27.2931    5.4133 C   0  0  0  0  0  0
  1  2  2  0  0  0
  2  3  1  0  0  0
  3  4  1  0  0  0
  4  5  2  0  0  0
  5  6  1  0  0  0
  6  7  2  0  0  0
  7  8  1  0  0  0
  8  9  2  0  0  0
  9 10  1  0  0  0
 10 11  2  0  0  0
 11 12  1  0  0  0
 12 13  2  0  0  0
 13 14  1  0  0  0
 13 15  1  0  0  0
 15 16  2  0  0  0
  7  2  1  0  0  0
 16 10  1  0  0  0
M  END
>  <CHROM.0>
-59.88758699,69.18109641

>  <CHROM.1>
-1.09367186,41.34487099,-1.84609979,28.42143502,3.93124990,1.08329991,1.05433803
0.04329709

>  <Name>
8ded0419-7ed8-496a-94cd-f7b74d9c3874

>  <RI>
3.75575e+07

>  <Rbt.Current_Directory>
/data/work/jku/5V6S/work/40/8dba899c20c42488f2b1a17844994e

>  <Rbt.Executable>
rbdock ($Id: //depot/dev/client3/rdock/2013.1/src/exe/rbdock.cxx#4 $)

>  <Rbt.Library>
libRbt.so (2013.1, Build901 2013/11/27)

>  <Rbt.Parameter_File>
/rDock_2013.1_src/data/scripts/dock.prm

>  <Rbt.Receptor>
docking.prm

>  <SCORE>
-13.5129

>  <SCORE.INTER>
-11.0786

>  <SCORE.INTER.CONST>
1

>  <SCORE.INTER.POLAR>
0

>  <SCORE.INTER.REPUL>
0

>  <SCORE.INTER.ROT>
2

>  <SCORE.INTER.VDW>
-18.4786

>  <SCORE.INTER.norm>
-0.692413

>  <SCORE.INTRA>
-0.920963

>  <SCORE.INTRA.DIHEDRAL>
-3.70857

>  <SCORE.INTRA.DIHEDRAL.0>
6.39815

>  <SCORE.INTRA.POLAR>
0

>  <SCORE.INTRA.POLAR.0>
0

>  <SCORE.INTRA.REPUL>
0

>  <SCORE.INTRA.REPUL.0>
0

>  <SCORE.INTRA.VDW>
0.933324

>  <SCORE.INTRA.VDW.0>
-0.561489

>  <SCORE.INTRA.norm>
-0.0575602

>  <SCORE.RESTR>
0

>  <SCORE.RESTR.CAVITY>
0

>  <SCORE.RESTR.norm>
0

>  <SCORE.SYSTEM>
-1.51332

>  <SCORE.SYSTEM.CONST>
0

>  <SCORE.SYSTEM.DIHEDRAL>
0.415649

>  <SCORE.SYSTEM.POLAR>
-0.503083

>  <SCORE.SYSTEM.VDW>
-0.0106627

>  <SCORE.SYSTEM.norm>
-0.0945826

>  <SCORE.heavy>
16

>  <SCORE.norm>
-0.844556

>  <enum_code>
T

>  <enum_smi>
O=C1CC=CC=C1C=Nc1ccc(Cl)cc1

>  <sha256>
813ba6512c1cc078b45b435424e0b61f270be0ff8107213ae8328c50911fa2cc

>  <std_smi>
Oc1ccccc1/C=N/c1ccc(Cl)cc1

>  <uuid>
8ded0419-7ed8-496a-94cd-f7b74d9c3874

$$$$
8ded0419-7ed8-496a-94cd-f7b74d9c3874
  rDOCK(R)          3D
libRbt.so/2013.1/901 2013/11/27
 16 17  0  0  0  0  0  0  0  0999 V2000
    0.0268   24.9665    3.8301 O   0  0  0  0  0  0
   -1.0763   25.1045    4.3580 C   0  0  0  0  0  0
   -1.6702   23.9475    5.1592 C   0  0  0  0  0  0
   -3.0145   24.2254    5.7564 C   0  0  0  0  0  0
   -3.6463   25.3933    5.6016 C   0  0  0  0  0  0
   -3.0569   26.4637    4.8391 C   0  0  0  0  0  0
   -1.8567   26.3744    4.2393 C   0  0  0  0  0  0
   -1.4033   27.5761    3.4939 C   0  0  0  0  0  0
   -2.0457   28.6951    3.4191 N   0  0  0  0  0  0
   -1.4450   29.7083    2.6636 C   0  0  0  0  0  0
   -0.7637   29.3977    1.4833 C   0  0  0  0  0  0
   -0.1728   30.4085    0.7209 C   0  0  0  0  0  0
   -0.2745   31.7350    1.1367 C   0  0  0  0  0  0
    0.4537   32.9819    0.2014 Cl  0  0  0  0  0  0
   -0.9666   32.0586    2.3025 C   0  0  0  0  0  0
   -1.5557   31.0438    3.0611 C   0  0  0  0  0  0
  1  2  2  0  0  0
  2  3  1  0  0  0
  3  4  1  0  0  0
  4  5  2  0  0  0
  5  6  1  0  0  0
  6  7  2  0  0  0
  7  8  1  0  0  0
  8  9  2  0  0  0
  9 10  1  0  0  0
 10 11  2  0  0  0
 11 12  1  0  0  0
 12 13  2  0  0  0
 13 14  1  0  0  0
 13 15  1  0  0  0
 15 16  2  0  0  0
  7  2  1  0  0  0
 16 10  1  0  0  0
M  END
>  <CHROM.0>
-59.88758699,69.31261043

>  <CHROM.1>
-177.57636412,37.93354865,-1.21399766,28.54159922,2.98886521,-1.87036091
0.62208598,-0.33950623

>  <Name>
8ded0419-7ed8-496a-94cd-f7b74d9c3874

>  <RI>
3.75575e+07

>  <Rbt.Current_Directory>
/data/work/jku/5V6S/work/40/8dba899c20c42488f2b1a17844994e

>  <Rbt.Executable>
rbdock ($Id: //depot/dev/client3/rdock/2013.1/src/exe/rbdock.cxx#4 $)

>  <Rbt.Library>
libRbt.so (2013.1, Build901 2013/11/27)

>  <Rbt.Parameter_File>
/rDock_2013.1_src/data/scripts/dock.prm

>  <Rbt.Receptor>
docking.prm

>  <SCORE>
-12.9344

>  <SCORE.INTER>
-10.8408

>  <SCORE.INTER.CONST>
1

>  <SCORE.INTER.POLAR>
0

>  <SCORE.INTER.REPUL>
0

>  <SCORE.INTER.ROT>
2

>  <SCORE.INTER.VDW>
-18.2408

>  <SCORE.INTER.norm>
-0.67755

>  <SCORE.INTRA>
-0.580736

>  <SCORE.INTRA.DIHEDRAL>
-4.06366

>  <SCORE.INTRA.DIHEDRAL.0>
6.39815

>  <SCORE.INTRA.POLAR>
0

>  <SCORE.INTRA.POLAR.0>
0

>  <SCORE.INTRA.REPUL>
0

>  <SCORE.INTRA.REPUL.0>
0

>  <SCORE.INTRA.VDW>
1.45109

>  <SCORE.INTRA.VDW.0>
-0.561489

>  <SCORE.INTRA.norm>
-0.036296

>  <SCORE.RESTR>
0

>  <SCORE.RESTR.CAVITY>
0

>  <SCORE.RESTR.norm>
0

>  <SCORE.SYSTEM>
-1.5129

>  <SCORE.SYSTEM.CONST>
0

>  <SCORE.SYSTEM.DIHEDRAL>
0.427188

>  <SCORE.SYSTEM.POLAR>
-0.503138

>  <SCORE.SYSTEM.VDW>
-0.0158307

>  <SCORE.SYSTEM.norm>
-0.0945565

>  <SCORE.heavy>
16

>  <SCORE.norm>
-0.808403

>  <enum_code>
T

>  <enum_smi>
O=C1CC=CC=C1C=Nc1ccc(Cl)cc1

>  <sha256>
813ba6512c1cc078b45b435424e0b61f270be0ff8107213ae8328c50911fa2cc

>  <std_smi>
Oc1ccccc1/C=N/c1ccc(Cl)cc1

>  <uuid>
8ded0419-7ed8-496a-94cd-f7b74d9c3874

$$$$
8ded0419-7ed8-496a-94cd-f7b74d9c3874
  rDOCK(R)          3D
libRbt.so/2013.1/901 2013/11/27
 16 17  0  0  0  0  0  0  0  0999 V2000
   -1.8395   31.8811    4.7419 O   0  0  0  0  0  0
   -1.4015   31.9082    3.5921 C   0  0  0  0  0  0
   -1.0301   33.2514    2.9666 C   0  0  0  0  0  0
   -0.5085   33.1662    1.5661 C   0  0  0  0  0  0
   -0.3774   32.0070    0.9133 C   0  0  0  0  0  0
   -0.7375   30.7580    1.5336 C   0  0  0  0  0  0
   -1.2207   30.6627    2.7849 C   0  0  0  0  0  0
   -1.5394   29.2938    3.2641 C   0  0  0  0  0  0
   -1.9910   29.0000    4.4389 N   0  0  0  0  0  0
   -2.2279   27.6446    4.6936 C   0  0  0  0  0  0
   -1.3216   26.6758    4.2534 C   0  0  0  0  0  0
   -1.5497   25.3226    4.5163 C   0  0  0  0  0  0
   -2.6833   24.9404    5.2316 C   0  0  0  0  0  0
   -2.9683   23.2749    5.5552 Cl  0  0  0  0  0  0
   -3.5849   25.8990    5.6910 C   0  0  0  0  0  0
   -3.3519   27.2508    5.4254 C   0  0  0  0  0  0
  1  2  2  0  0  0
  2  3  1  0  0  0
  3  4  1  0  0  0
  4  5  2  0  0  0
  5  6  1  0  0  0
  6  7  2  0  0  0
  7  8  1  0  0  0
  8  9  2  0  0  0
  9 10  1  0  0  0
 10 11  2  0  0  0
 11 12  1  0  0  0
 12 13  2  0  0  0
 13 14  1  0  0  0
 13 15  1  0  0  0
 15 16  2  0  0  0
  7  2  1  0  0  0
 16 10  1  0  0  0
M  END
>  <CHROM.0>
-59.88758699,179.02142218

>  <CHROM.1>
-1.13981934,41.46752406,-1.88342414,28.44512193,3.99705021,1.12469512,1.03906905
0.03247212

>  <Name>
8ded0419-7ed8-496a-94cd-f7b74d9c3874

>  <RI>
3.75575e+07

>  <Rbt.Current_Directory>
/data/work/jku/5V6S/work/40/8dba899c20c42488f2b1a17844994e

>  <Rbt.Executable>
rbdock ($Id: //depot/dev/client3/rdock/2013.1/src/exe/rbdock.cxx#4 $)

>  <Rbt.Library>
libRbt.so (2013.1, Build901 2013/11/27)

>  <Rbt.Parameter_File>
/rDock_2013.1_src/data/scripts/dock.prm

>  <Rbt.Receptor>
docking.prm

>  <SCORE>
-12.1635

>  <SCORE.INTER>
-10.9749

>  <SCORE.INTER.CONST>
1

>  <SCORE.INTER.POLAR>
0

>  <SCORE.INTER.REPUL>
0

>  <SCORE.INTER.ROT>
2

>  <SCORE.INTER.VDW>
-18.3749

>  <SCORE.INTER.norm>
-0.685932

>  <SCORE.INTRA>
-0.918868

>  <SCORE.INTRA.DIHEDRAL>
-3.6947

>  <SCORE.INTRA.DIHEDRAL.0>
6.39815

>  <SCORE.INTRA.POLAR>
0

>  <SCORE.INTRA.POLAR.0>
0

>  <SCORE.INTRA.REPUL>
0

>  <SCORE.INTRA.REPUL.0>
0

>  <SCORE.INTRA.VDW>
0.92848

>  <SCORE.INTRA.VDW.0>
-0.561489

>  <SCORE.INTRA.norm>
-0.0574293

>  <SCORE.RESTR>
0

>  <SCORE.RESTR.CAVITY>
0

>  <SCORE.RESTR.norm>
0

>  <SCORE.SYSTEM>
-0.269711

>  <SCORE.SYSTEM.CONST>
0

>  <SCORE.SYSTEM.DIHEDRAL>
0.0123559

>  <SCORE.SYSTEM.VDW>
-0.275889

>  <SCORE.SYSTEM.norm>
-0.0168569

>  <SCORE.heavy>
16

>  <SCORE.norm>
-0.760218

>  <enum_code>
T

>  <enum_smi>
O=C1CC=CC=C1C=Nc1ccc(Cl)cc1

>  <sha256>
813ba6512c1cc078b45b435424e0b61f270be0ff8107213ae8328c50911fa2cc

>  <std_smi>
Oc1ccccc1/C=N/c1ccc(Cl)cc1

>  <uuid>
8ded0419-7ed8-496a-94cd-f7b74d9c3874

$$$$
8ded0419-7ed8-496a-94cd-f7b74d9c3874
  rDOCK(R)          3D
libRbt.so/2013.1/901 2013/11/27
 16 17  0  0  0  0  0  0  0  0999 V2000
   -1.5736   31.9956    4.6758 O   0  0  0  0  0  0
   -1.2443   31.9585    3.4906 C   0  0  0  0  0  0
   -0.8765   33.2582    2.7773 C   0  0  0  0  0  0
   -0.4923   33.0956    1.3396 C   0  0  0  0  0  0
   -0.4722   31.9075    0.7273 C   0  0  0  0  0  0
   -0.8253   30.7010    1.4304 C   0  0  0  0  0  0
   -1.1928   30.6760    2.7236 C   0  0  0  0  0  0
   -1.5230   29.3426    3.2876 C   0  0  0  0  0  0
   -1.7268   29.0905    4.5387 N   0  0  0  0  0  0
   -2.0264   27.7632    4.8654 C   0  0  0  0  0  0
   -1.4778   27.1781    6.0102 C   0  0  0  0  0  0
   -1.7842   25.8567    6.3451 C   0  0  0  0  0  0
   -2.6513   25.1235    5.5367 C   0  0  0  0  0  0
   -3.0291   23.4955    5.9451 Cl  0  0  0  0  0  0
   -3.2185   25.7022    4.4026 C   0  0  0  0  0  0
   -2.9086   27.0240    4.0724 C   0  0  0  0  0  0
  1  2  2  0  0  0
  2  3  1  0  0  0
  3  4  1  0  0  0
  4  5  2  0  0  0
  5  6  1  0  0  0
  6  7  2  0  0  0
  7  8  1  0  0  0
  8  9  2  0  0  0
  9 10  1  0  0  0
 10 11  2  0  0  0
 11 12  1  0  0  0
 12 13  2  0  0  0
 13 14  1  0  0  0
 13 15  1  0  0  0
 15 16  2  0  0  0
  7  2  1  0  0  0
 16 10  1  0  0  0
M  END
>  <CHROM.0>
-59.88758699,69.36484550

>  <CHROM.1>
-9.44152249,139.51871924,-1.81226715,28.53601009,4.08841211,-0.15880350,1.34575310
1.31087804

>  <Name>
8ded0419-7ed8-496a-94cd-f7b74d9c3874

>  <RI>
3.75575e+07

>  <Rbt.Current_Directory>
/data/work/jku/5V6S/work/40/8dba899c20c42488f2b1a17844994e

>  <Rbt.Executable>
rbdock ($Id: //depot/dev/client3/rdock/2013.1/src/exe/rbdock.cxx#4 $)

>  <Rbt.Library>
libRbt.so (2013.1, Build901 2013/11/27)

>  <Rbt.Parameter_File>
/rDock_2013.1_src/data/scripts/dock.prm

>  <Rbt.Receptor>
docking.prm

>  <SCORE>
-13.1222

>  <SCORE.INTER>
-10.856

>  <SCORE.INTER.CONST>
1

>  <SCORE.INTER.POLAR>
0

>  <SCORE.INTER.REPUL>
0

>  <SCORE.INTER.ROT>
2

>  <SCORE.INTER.VDW>
-18.256

>  <SCORE.INTER.norm>
-0.678502

>  <SCORE.INTRA>
-0.753495

>  <SCORE.INTRA.DIHEDRAL>
-3.28634

>  <SCORE.INTRA.DIHEDRAL.0>
6.39815

>  <SCORE.INTRA.POLAR>
0

>  <SCORE.INTRA.POLAR.0>
0

>  <SCORE.INTRA.REPUL>
0

>  <SCORE.INTRA.REPUL.0>
0

>  <SCORE.INTRA.VDW>
0.889677

>  <SCORE.INTRA.VDW.0>
-0.561489

>  <SCORE.INTRA.norm>
-0.0470934

>  <SCORE.RESTR>
0

>  <SCORE.RESTR.CAVITY>
0

>  <SCORE.RESTR.norm>
0

>  <SCORE.SYSTEM>
-1.51269

>  <SCORE.SYSTEM.CONST>
0

>  <SCORE.SYSTEM.DIHEDRAL>
0.431813

>  <SCORE.SYSTEM.POLAR>
-0.503155

>  <SCORE.SYSTEM.VDW>
-0.0178725

>  <SCORE.SYSTEM.norm>
-0.0945434

>  <SCORE.heavy>
16

>  <SCORE.norm>
-0.820139

>  <enum_code>
T

>  <enum_smi>
O=C1CC=CC=C1C=Nc1ccc(Cl)cc1

>  <sha256>
813ba6512c1cc078b45b435424e0b61f270be0ff8107213ae8328c50911fa2cc

>  <std_smi>
Oc1ccccc1/C=N/c1ccc(Cl)cc1

>  <uuid>
8ded0419-7ed8-496a-94cd-f7b74d9c3874

$$$$
5e2a379d-9aab-42b2-9ad7-eb44cb444a87
  rDOCK(R)          3D
libRbt.so/2013.1/901 2013/11/27
 17 18  0  0  0  0  0  0  0  0999 V2000
   -1.6419   31.5639    5.3937 O   0  0  0  0  0  0
   -1.4380   31.7988    4.0626 C   0  0  0  0  0  0
   -1.2458   33.1325    3.7033 C   0  0  0  0  0  0
   -0.9911   33.4693    2.3734 C   0  0  0  0  0  0
   -0.9331   32.4725    1.4005 C   0  0  0  0  0  0
   -1.1426   31.1381    1.7550 C   0  0  0  0  0  0
   -1.4062   30.7957    3.0879 C   0  0  0  0  0  0
   -1.6899   29.3866    3.4282 C   0  0  0  0  0  0
   -1.9470   29.0104    4.6425 N   0  0  0  0  0  0
   -2.1914   27.6438    4.8252 C   0  0  0  0  0  0
   -1.3077   26.6882    4.3142 C   0  0  0  0  0  0
   -1.5477   25.3260    4.5116 C   0  0  0  0  0  0
   -2.6700   24.9206    5.2319 C   0  0  0  0  0  0
   -2.9688   23.2441    5.4763 Cl  0  0  0  0  0  0
   -3.5492   25.8646    5.7595 C   0  0  0  0  0  0
   -3.3047   27.2255    5.5590 C   0  0  0  0  0  0
   -1.8200   30.6180    5.5262 H   0  0  0  0  0  0
  1  2  1  0  0  0
  2  3  2  0  0  0
  3  4  1  0  0  0
  4  5  2  0  0  0
  5  6  1  0  0  0
  6  7  2  0  0  0
  7  8  1  0  0  0
  8  9  2  0  0  0
  9 10  1  0  0  0
 10 11  2  0  0  0
 11 12  1  0  0  0
 12 13  2  0  0  0
 13 14  1  0  0  0
 13 15  1  0  0  0
 15 16  2  0  0  0
  7  2  1  0  0  0
 16 10  1  0  0  0
  1 17  1  0  0  0
M  END
>  <CHROM.0>
-59.88758699,69.11488397

>  <CHROM.1>
176.41501131,-1.74408611,50.37207828,-1.97567429,28.46842932,4.25069560,1.03128008
1.19682569,0.21770771

>  <Name>
5e2a379d-9aab-42b2-9ad7-eb44cb444a87

>  <RI>
4.34885e+07

>  <Rbt.Current_Directory>
/data/work/jku/5V6S/work/40/8dba899c20c42488f2b1a17844994e

>  <Rbt.Executable>
rbdock ($Id: //depot/dev/client3/rdock/2013.1/src/exe/rbdock.cxx#4 $)

>  <Rbt.Library>
libRbt.so (2013.1, Build901 2013/11/27)

>  <Rbt.Parameter_File>
/rDock_2013.1_src/data/scripts/dock.prm

>  <Rbt.Receptor>
docking.prm

>  <SCORE>
-16.692

>  <SCORE.INTER>
-10.7395

>  <SCORE.INTER.CONST>
1

>  <SCORE.INTER.POLAR>
0

>  <SCORE.INTER.REPUL>
0.056588

>  <SCORE.INTER.ROT>
2

>  <SCORE.INTER.VDW>
-18.4224

>  <SCORE.INTER.norm>
-0.671219

>  <SCORE.INTRA>
-4.43903

>  <SCORE.INTRA.DIHEDRAL>
-4.48324

>  <SCORE.INTRA.DIHEDRAL.0>
8.19772

>  <SCORE.INTRA.POLAR>
-0.859371

>  <SCORE.INTRA.POLAR.0>
0

>  <SCORE.INTRA.REPUL>
0

>  <SCORE.INTRA.REPUL.0>
0

>  <SCORE.INTRA.VDW>
0.724451

>  <SCORE.INTRA.VDW.0>
-0.302217

>  <SCORE.INTRA.norm>
-0.277439

>  <SCORE.RESTR>
0

>  <SCORE.RESTR.CAVITY>
0

>  <SCORE.RESTR.norm>
0

>  <SCORE.SYSTEM>
-1.51347

>  <SCORE.SYSTEM.CONST>
0

>  <SCORE.SYSTEM.DIHEDRAL>
0.409897

>  <SCORE.SYSTEM.POLAR>
-0.503051

>  <SCORE.SYSTEM.VDW>
-0.00804594

>  <SCORE.SYSTEM.norm>
-0.0945919

>  <SCORE.heavy>
16

>  <SCORE.norm>
-1.04325

>  <enum_code>
T

>  <enum_smi>
Oc1ccccc1C=Nc1ccc(Cl)cc1

>  <sha256>
813ba6512c1cc078b45b435424e0b61f270be0ff8107213ae8328c50911fa2cc

>  <std_smi>
Oc1ccccc1/C=N/c1ccc(Cl)cc1

>  <uuid>
5e2a379d-9aab-42b2-9ad7-eb44cb444a87

$$$$
5e2a379d-9aab-42b2-9ad7-eb44cb444a87
  rDOCK(R)          3D
libRbt.so/2013.1/901 2013/11/27
 17 18  0  0  0  0  0  0  0  0999 V2000
   -3.9769   27.0884    4.7771 O   0  0  0  0  0  0
   -3.0184   26.1229    4.9103 C   0  0  0  0  0  0
   -3.3805   25.0070    5.6644 C   0  0  0  0  0  0
   -2.4840   23.9500    5.8249 C   0  0  0  0  0  0
   -1.2223   24.0101    5.2351 C   0  0  0  0  0  0
   -0.8510   25.1340    4.4941 C   0  0  0  0  0  0
   -1.7450   26.2013    4.3363 C   0  0  0  0  0  0
   -1.3067   27.4073    3.6045 C   0  0  0  0  0  0
   -2.0644   28.4533    3.4857 N   0  0  0  0  0  0
   -1.5269   29.5239    2.7607 C   0  0  0  0  0  0
   -1.6404   30.8338    3.2363 C   0  0  0  0  0  0
   -1.0897   31.8975    2.5170 C   0  0  0  0  0  0
   -0.4143   31.6470    1.3237 C   0  0  0  0  0  0
    0.2644   32.9543    0.4352 Cl  0  0  0  0  0  0
   -0.2812   30.3436    0.8480 C   0  0  0  0  0  0
   -0.8340   29.2836    1.5712 C   0  0  0  0  0  0
   -3.6047   27.8406    4.2875 H   0  0  0  0  0  0
  1  2  1  0  0  0
  2  3  2  0  0  0
  3  4  1  0  0  0
  4  5  2  0  0  0
  5  6  1  0  0  0
  6  7  2  0  0  0
  7  8  1  0  0  0
  8  9  2  0  0  0
  9 10  1  0  0  0
 10 11  2  0  0  0
 11 12  1  0  0  0
 12 13  2  0  0  0
 13 14  1  0  0  0
 13 15  1  0  0  0
 15 16  2  0  0  0
  7  2  1  0  0  0
 16 10  1  0  0  0
  1 17  1  0  0  0
M  END
>  <CHROM.0>
-59.88758699,69.21224970

>  <CHROM.1>
176.32609315,1.54867957,-135.13582805,-1.45781298,28.56713637,3.17111633
1.87866769,-0.54258335,2.77210756

>  <Name>
5e2a379d-9aab-42b2-9ad7-eb44cb444a87

>  <RI>
4.34885e+07

>  <Rbt.Current_Directory>
/data/work/jku/5V6S/work/40/8dba899c20c42488f2b1a17844994e

>  <Rbt.Executable>
rbdock ($Id: //depot/dev/client3/rdock/2013.1/src/exe/rbdock.cxx#4 $)

>  <Rbt.Library>
libRbt.so (2013.1, Build901 2013/11/27)

>  <Rbt.Parameter_File>
/rDock_2013.1_src/data/scripts/dock.prm

>  <Rbt.Receptor>
docking.prm

>  <SCORE>
-16.2955

>  <SCORE.INTER>
-10.3986

>  <SCORE.INTER.CONST>
1

>  <SCORE.INTER.POLAR>
0

>  <SCORE.INTER.REPUL>
0

>  <SCORE.INTER.ROT>
2

>  <SCORE.INTER.VDW>
-17.7986

>  <SCORE.INTER.norm>
-0.649912

>  <SCORE.INTRA>
-4.38368

>  <SCORE.INTRA.DIHEDRAL>
-5.07115

>  <SCORE.INTRA.DIHEDRAL.0>
8.19772

>  <SCORE.INTRA.POLAR>
-0.857667

>  <SCORE.INTRA.POLAR.0>
0

>  <SCORE.INTRA.REPUL>
0

>  <SCORE.INTRA.REPUL.0>
0

>  <SCORE.INTRA.VDW>
1.06796

>  <SCORE.INTRA.VDW.0>
-0.302217

>  <SCORE.INTRA.norm>
-0.27398

>  <SCORE.RESTR>
0

>  <SCORE.RESTR.CAVITY>
0

>  <SCORE.RESTR.norm>
0

>  <SCORE.SYSTEM>
-1.51324

>  <SCORE.SYSTEM.CONST>
0

>  <SCORE.SYSTEM.DIHEDRAL>
0.418369

>  <SCORE.SYSTEM.POLAR>
-0.503097

>  <SCORE.SYSTEM.VDW>
-0.0118904

>  <SCORE.SYSTEM.norm>
-0.0945773

>  <SCORE.heavy>
16

>  <SCORE.norm>
-1.01847

>  <enum_code>
T

>  <enum_smi>
Oc1ccccc1C=Nc1ccc(Cl)cc1

>  <sha256>
813ba6512c1cc078b45b435424e0b61f270be0ff8107213ae8328c50911fa2cc

>  <std_smi>
Oc1ccccc1/C=N/c1ccc(Cl)cc1

>  <uuid>
5e2a379d-9aab-42b2-9ad7-eb44cb444a87

$$$$
5e2a379d-9aab-42b2-9ad7-eb44cb444a87
  rDOCK(R)          3D
libRbt.so/2013.1/901 2013/11/27
 17 18  0  0  0  0  0  0  0  0999 V2000
   -1.7540   31.7421    5.0226 O   0  0  0  0  0  0
   -1.3937   31.8456    3.7080 C   0  0  0  0  0  0
   -1.1812   33.1406    3.2362 C   0  0  0  0  0  0
   -0.7723   33.3471    1.9183 C   0  0  0  0  0  0
   -0.5800   32.2582    1.0693 C   0  0  0  0  0  0
   -0.8089   30.9615    1.5343 C   0  0  0  0  0  0
   -1.2270   30.7495    2.8547 C   0  0  0  0  0  0
   -1.5267   29.3749    3.3048 C   0  0  0  0  0  0
   -1.9031   29.1149    4.5184 N   0  0  0  0  0  0
   -2.1479   27.7679    4.8121 C   0  0  0  0  0  0
   -3.2938   27.3904    5.5188 C   0  0  0  0  0  0
   -3.5416   26.0437    5.7968 C   0  0  0  0  0  0
   -2.6446   25.0721    5.3563 C   0  0  0  0  0  0
   -2.9463   23.4131    5.6973 Cl  0  0  0  0  0  0
   -1.5072   25.4353    4.6371 C   0  0  0  0  0  0
   -1.2642   26.7834    4.3621 C   0  0  0  0  0  0
   -2.2106   32.5562    5.2923 H   0  0  0  0  0  0
  1  2  1  0  0  0
  2  3  2  0  0  0
  3  4  1  0  0  0
  4  5  2  0  0  0
  5  6  1  0  0  0
  6  7  2  0  0  0
  7  8  1  0  0  0
  8  9  2  0  0  0
  9 10  1  0  0  0
 10 11  2  0  0  0
 11 12  1  0  0  0
 12 13  2  0  0  0
 13 14  1  0  0  0
 13 15  1  0  0  0
 15 16  2  0  0  0
  7  2  1  0  0  0
 16 10  1  0  0  0
  1 17  1  0  0  0
M  END
>  <CHROM.0>
-59.88758699,69.16274749

>  <CHROM.1>
27.36900774,-2.84675759,-134.41901631,-1.89443893,28.53746400,4.14548446
1.10813128,1.09456740,0.06043584

>  <Name>
5e2a379d-9aab-42b2-9ad7-eb44cb444a87

>  <RI>
4.34885e+07

>  <Rbt.Current_Directory>
/data/work/jku/5V6S/work/40/8dba899c20c42488f2b1a17844994e

>  <Rbt.Executable>
rbdock ($Id: //depot/dev/client3/rdock/2013.1/src/exe/rbdock.cxx#4 $)

>  <Rbt.Library>
libRbt.so (2013.1, Build901 2013/11/27)

>  <Rbt.Parameter_File>
/rDock_2013.1_src/data/scripts/dock.prm

>  <Rbt.Receptor>
docking.prm

>  <SCORE>
-16.5985

>  <SCORE.INTER>
-14.3309

>  <SCORE.INTER.CONST>
1

>  <SCORE.INTER.POLAR>
-0.891613

>  <SCORE.INTER.REPUL>
0

>  <SCORE.INTER.ROT>
2

>  <SCORE.INTER.VDW>
-18.6995

>  <SCORE.INTER.norm>
-0.895684

>  <SCORE.INTRA>
-0.754238

>  <SCORE.INTRA.DIHEDRAL>
-4.0278

>  <SCORE.INTRA.DIHEDRAL.0>
8.19772

>  <SCORE.INTRA.POLAR>
0

>  <SCORE.INTRA.POLAR.0>
0

>  <SCORE.INTRA.REPUL>
0.00114409

>  <SCORE.INTRA.REPUL.0>
0

>  <SCORE.INTRA.VDW>
1.25394

>  <SCORE.INTRA.VDW.0>
-0.302217

>  <SCORE.INTRA.norm>
-0.0471399

>  <SCORE.RESTR>
0

>  <SCORE.RESTR.CAVITY>
0

>  <SCORE.RESTR.norm>
0

>  <SCORE.SYSTEM>
-1.51337

>  <SCORE.SYSTEM.CONST>
0

>  <SCORE.SYSTEM.DIHEDRAL>
0.414051

>  <SCORE.SYSTEM.POLAR>
-0.503075

>  <SCORE.SYSTEM.VDW>
-0.00993852

>  <SCORE.SYSTEM.norm>
-0.0945854

>  <SCORE.heavy>
16

>  <SCORE.norm>
-1.03741

>  <enum_code>
T

>  <enum_smi>
Oc1ccccc1C=Nc1ccc(Cl)cc1

>  <sha256>
813ba6512c1cc078b45b435424e0b61f270be0ff8107213ae8328c50911fa2cc

>  <std_smi>
Oc1ccccc1/C=N/c1ccc(Cl)cc1

>  <uuid>
5e2a379d-9aab-42b2-9ad7-eb44cb444a87

$$$$
5e2a379d-9aab-42b2-9ad7-eb44cb444a87
  rDOCK(R)          3D
libRbt.so/2013.1/901 2013/11/27
 17 18  0  0  0  0  0  0  0  0999 V2000
   -1.7696   31.7177    5.0089 O   0  0  0  0  0  0
   -1.3912   31.8244    3.6998 C   0  0  0  0  0  0
   -1.1754   33.1208    3.2333 C   0  0  0  0  0  0
   -0.7486   33.3307    1.9216 C   0  0  0  0  0  0
   -0.5415   32.2438    1.0734 C   0  0  0  0  0  0
   -0.7737   30.9457    1.5329 C   0  0  0  0  0  0
   -1.2097   30.7303    2.8470 C   0  0  0  0  0  0
   -1.5122   29.3541    3.2903 C   0  0  0  0  0  0
   -1.8938   29.0897    4.5014 N   0  0  0  0  0  0
   -2.1407   27.7416    4.7887 C   0  0  0  0  0  0
   -3.2893   27.3622    5.4900 C   0  0  0  0  0  0
   -3.5392   26.0147    5.7616 C   0  0  0  0  0  0
   -2.6415   25.0440    5.3202 C   0  0  0  0  0  0
   -2.9458   23.3840    5.6534 Cl  0  0  0  0  0  0
   -1.5014   25.4092    4.6064 C   0  0  0  0  0  0
   -1.2562   26.7582    4.3377 C   0  0  0  0  0  0
   -2.2376   32.5275    5.2718 H   0  0  0  0  0  0
  1  2  1  0  0  0
  2  3  2  0  0  0
  3  4  1  0  0  0
  4  5  2  0  0  0
  5  6  1  0  0  0
  6  7  2  0  0  0
  7  8  1  0  0  0
  8  9  2  0  0  0
  9 10  1  0  0  0
 10 11  2  0  0  0
 11 12  1  0  0  0
 12 13  2  0  0  0
 13 14  1  0  0  0
 13 15  1  0  0  0
 15 16  2  0  0  0
  7  2  1  0  0  0
 16 10  1  0  0  0
  1 17  1  0  0  0
M  END
>  <CHROM.0>
-59.88758699,67.94351039

>  <CHROM.1>
27.76855862,-3.45935393,-134.46060151,-1.88563873,28.51376725,4.12544508
1.11471462,1.08325371,0.05670604

>  <Name>
5e2a379d-9aab-42b2-9ad7-eb44cb444a87

>  <RI>
4.34885e+07

>  <Rbt.Current_Directory>
/data/work/jku/5V6S/work/40/8dba899c20c42488f2b1a17844994e

>  <Rbt.Executable>
rbdock ($Id: //depot/dev/client3/rdock/2013.1/src/exe/rbdock.cxx#4 $)

>  <Rbt.Library>
libRbt.so (2013.1, Build901 2013/11/27)

>  <Rbt.Parameter_File>
/rDock_2013.1_src/data/scripts/dock.prm

>  <Rbt.Receptor>
docking.prm

>  <SCORE>
-16.6045

>  <SCORE.INTER>
-14.3459

>  <SCORE.INTER.CONST>
1

>  <SCORE.INTER.POLAR>
-0.893314

>  <SCORE.INTER.REPUL>
0

>  <SCORE.INTER.ROT>
2

>  <SCORE.INTER.VDW>
-18.7087

>  <SCORE.INTER.norm>
-0.896622

>  <SCORE.INTRA>
-0.749368

>  <SCORE.INTRA.DIHEDRAL>
-3.99503

>  <SCORE.INTRA.DIHEDRAL.0>
8.19772

>  <SCORE.INTRA.POLAR>
0

>  <SCORE.INTRA.POLAR.0>
0

>  <SCORE.INTRA.REPUL>
0

>  <SCORE.INTRA.REPUL.0>
0

>  <SCORE.INTRA.VDW>
1.24815

>  <SCORE.INTRA.VDW.0>
-0.302217

>  <SCORE.INTRA.norm>
-0.0468355

>  <SCORE.RESTR>
0

>  <SCORE.RESTR.CAVITY>
0

>  <SCORE.RESTR.norm>
0

>  <SCORE.SYSTEM>
-1.50921

>  <SCORE.SYSTEM.CONST>
0

>  <SCORE.SYSTEM.DIHEDRAL>
0.314551

>  <SCORE.SYSTEM.POLAR>
-0.501885

>  <SCORE.SYSTEM.VDW>
0.0399183

>  <SCORE.SYSTEM.norm>
-0.0943259

>  <SCORE.heavy>
16

>  <SCORE.norm>
-1.03778

>  <enum_code>
T

>  <enum_smi>
Oc1ccccc1C=Nc1ccc(Cl)cc1

>  <sha256>
813ba6512c1cc078b45b435424e0b61f270be0ff8107213ae8328c50911fa2cc

>  <std_smi>
Oc1ccccc1/C=N/c1ccc(Cl)cc1

>  <uuid>
5e2a379d-9aab-42b2-9ad7-eb44cb444a87

$$$$
5e2a379d-9aab-42b2-9ad7-eb44cb444a87
  rDOCK(R)          3D
libRbt.so/2013.1/901 2013/11/27
 17 18  0  0  0  0  0  0  0  0999 V2000
   -1.6784   31.5960    5.3990 O   0  0  0  0  0  0
   -1.4552   31.8137    4.0681 C   0  0  0  0  0  0
   -1.2697   33.1438    3.6926 C   0  0  0  0  0  0
   -0.9966   33.4639    2.3623 C   0  0  0  0  0  0
   -0.9134   32.4539    1.4050 C   0  0  0  0  0  0
   -1.1161   31.1228    1.7754 C   0  0  0  0  0  0
   -1.3981   30.7970    3.1087 C   0  0  0  0  0  0
   -1.6740   29.3903    3.4649 C   0  0  0  0  0  0
   -1.9211   29.0251    4.6846 N   0  0  0  0  0  0
   -2.1590   27.6594    4.8824 C   0  0  0  0  0  0
   -3.2921   27.2279    5.5787 C   0  0  0  0  0  0
   -3.5333   25.8638    5.7609 C   0  0  0  0  0  0
   -2.6426   24.9295    5.2349 C   0  0  0  0  0  0
   -2.9361   23.2492    5.4579 Cl  0  0  0  0  0  0
   -1.5182   25.3477    4.5253 C   0  0  0  0  0  0
   -1.2817   26.7130    4.3462 C   0  0  0  0  0  0
   -1.8413   30.6491    5.5435 H   0  0  0  0  0  0
  1  2  1  0  0  0
  2  3  2  0  0  0
  3  4  1  0  0  0
  4  5  2  0  0  0
  5  6  1  0  0  0
  6  7  2  0  0  0
  7  8  1  0  0  0
  8  9  2  0  0  0
  9 10  1  0  0  0
 10 11  2  0  0  0
 11 12  1  0  0  0
 12 13  2  0  0  0
 13 14  1  0  0  0
 13 15  1  0  0  0
 15 16  2  0  0  0
  7  2  1  0  0  0
 16 10  1  0  0  0
  1 17  1  0  0  0
M  END
>  <CHROM.0>
-59.88758699,69.37542508

>  <CHROM.1>
176.95609481,-3.14083145,-128.93011853,-1.96254929,28.47590185,4.26132287
1.05595263,1.18752066,0.19361345

>  <Name>
5e2a379d-9aab-42b2-9ad7-eb44cb444a87

>  <RI>
4.34885e+07

>  <Rbt.Current_Directory>
/data/work/jku/5V6S/work/40/8dba899c20c42488f2b1a17844994e

>  <Rbt.Executable>
rbdock ($Id: //depot/dev/client3/rdock/2013.1/src/exe/rbdock.cxx#4 $)

>  <Rbt.Library>
libRbt.so (2013.1, Build901 2013/11/27)

>  <Rbt.Parameter_File>
/rDock_2013.1_src/data/scripts/dock.prm

>  <Rbt.Receptor>
docking.prm

>  <SCORE>
-16.5474

>  <SCORE.INTER>
-10.7441

>  <SCORE.INTER.CONST>
1

>  <SCORE.INTER.POLAR>
0

>  <SCORE.INTER.REPUL>
0.070324

>  <SCORE.INTER.ROT>
2

>  <SCORE.INTER.VDW>
-18.4957

>  <SCORE.INTER.norm>
-0.671503

>  <SCORE.INTRA>
-4.29068

>  <SCORE.INTRA.DIHEDRAL>
-4.39668

>  <SCORE.INTRA.DIHEDRAL.0>
8.19772

>  <SCORE.INTRA.POLAR>
-0.859765

>  <SCORE.INTRA.POLAR.0>
0

>  <SCORE.INTRA.REPUL>
0

>  <SCORE.INTRA.REPUL.0>
0

>  <SCORE.INTRA.VDW>
0.83086

>  <SCORE.INTRA.VDW.0>
-0.302217

>  <SCORE.INTRA.norm>
-0.268167

>  <SCORE.RESTR>
0

>  <SCORE.RESTR.CAVITY>
0

>  <SCORE.RESTR.norm>
0

>  <SCORE.SYSTEM>
-1.51265

>  <SCORE.SYSTEM.CONST>
0

>  <SCORE.SYSTEM.DIHEDRAL>
0.432753

>  <SCORE.SYSTEM.POLAR>
-0.503159

>  <SCORE.SYSTEM.VDW>
-0.0182853

>  <SCORE.SYSTEM.norm>
-0.0945405

>  <SCORE.heavy>
16

>  <SCORE.norm>
-1.03421

>  <enum_code>
T

>  <enum_smi>
Oc1ccccc1C=Nc1ccc(Cl)cc1

>  <sha256>
813ba6512c1cc078b45b435424e0b61f270be0ff8107213ae8328c50911fa2cc

>  <std_smi>
Oc1ccccc1/C=N/c1ccc(Cl)cc1

>  <uuid>
5e2a379d-9aab-42b2-9ad7-eb44cb444a87

$$$$
2508cabb-b90a-46d8-b9be-1e9574bd8ea4
  rDOCK(R)          3D
libRbt.so/2013.1/901 2013/11/27
 16 17  0  0  0  0  0  0  0  0999 V2000
   -1.6257   31.7940    4.4722 O   0  5  0  0  0  0
   -1.2041   31.8006    3.2646 C   0  0  0  0  0  0
   -0.8469   33.0113    2.6316 C   0  0  0  0  0  0
   -0.3779   33.0942    1.3123 C   0  0  0  0  0  0
   -0.2425   31.9437    0.5512 C   0  0  0  0  0  0
   -0.5776   30.7193    1.1164 C   0  0  0  0  0  0
   -1.0480   30.6490    2.4437 C   0  0  0  0  0  0
   -1.3881   29.3049    2.9848 C   0  0  0  0  0  0
   -1.7238   29.1100    4.2302 N   0  0  0  0  0  0
   -2.0129   27.7853    4.5753 C   0  0  0  0  0  0
   -1.2054   26.7438    4.1104 C   0  0  0  0  0  0
   -1.4749   25.4225    4.4749 C   0  0  0  0  0  0
   -2.5524   25.1461    5.3150 C   0  0  0  0  0  0
   -2.8847   23.5193    5.7713 Cl  0  0  0  0  0  0
   -3.3597   26.1772    5.7930 C   0  0  0  0  0  0
   -3.0845   27.4962    5.4245 C   0  0  0  0  0  0
  1  2  1  0  0  0
  2  3  2  0  0  0
  3  4  1  0  0  0
  4  5  2  0  0  0
  5  6  1  0  0  0
  6  7  2  0  0  0
  7  8  1  0  0  0
  8  9  2  0  0  0
  9 10  1  0  0  0
 10 11  2  0  0  0
 11 12  1  0  0  0
 12 13  2  0  0  0
 13 14  1  0  0  0
 13 15  1  0  0  0
 15 16  2  0  0  0
  7  2  1  0  0  0
 16 10  1  0  0  0
M  END
>  <CHROM.0>
-59.88758699,70.19666870

>  <CHROM.1>
-5.90551892,42.81965098,-1.72450356,28.49031443,3.86908527,1.05976351,1.08446613
0.02974243

>  <Name>
2508cabb-b90a-46d8-b9be-1e9574bd8ea4

>  <RI>
1.84702e+07

>  <Rbt.Current_Directory>
/data/work/jku/5V6S/work/40/8dba899c20c42488f2b1a17844994e

>  <Rbt.Executable>
rbdock ($Id: //depot/dev/client3/rdock/2013.1/src/exe/rbdock.cxx#4 $)

>  <Rbt.Library>
libRbt.so (2013.1, Build901 2013/11/27)

>  <Rbt.Parameter_File>
/rDock_2013.1_src/data/scripts/dock.prm

>  <Rbt.Receptor>
docking.prm

>  <SCORE>
-13.5604

>  <SCORE.INTER>
-11.1338

>  <SCORE.INTER.CONST>
1

>  <SCORE.INTER.POLAR>
0

>  <SCORE.INTER.REPUL>
0

>  <SCORE.INTER.ROT>
2

>  <SCORE.INTER.VDW>
-18.5338

>  <SCORE.INTER.norm>
-0.695863

>  <SCORE.INTRA>
-0.920674

>  <SCORE.INTRA.DIHEDRAL>
-3.4256

>  <SCORE.INTRA.DIHEDRAL.0>
6.39772

>  <SCORE.INTRA.POLAR>
0

>  <SCORE.INTRA.POLAR.0>
0

>  <SCORE.INTRA.REPUL>
0

>  <SCORE.INTRA.REPUL.0>
0

>  <SCORE.INTRA.VDW>
0.792126

>  <SCORE.INTRA.VDW.0>
-0.259542

>  <SCORE.INTRA.norm>
-0.0575421

>  <SCORE.RESTR>
0

>  <SCORE.RESTR.CAVITY>
0

>  <SCORE.RESTR.norm>
0

>  <SCORE.SYSTEM>
-1.50594

>  <SCORE.SYSTEM.CONST>
0

>  <SCORE.SYSTEM.DIHEDRAL>
0.50864

>  <SCORE.SYSTEM.POLAR>
-0.503144

>  <SCORE.SYSTEM.VDW>
-0.0495684

>  <SCORE.SYSTEM.norm>
-0.0941211

>  <SCORE.heavy>
16

>  <SCORE.norm>
-0.847526

>  <enum_code>
M

>  <enum_smi>
[O-]c1ccccc1/C=N/c1ccc(Cl)cc1

>  <sha256>
813ba6512c1cc078b45b435424e0b61f270be0ff8107213ae8328c50911fa2cc

>  <std_smi>
Oc1ccccc1/C=N/c1ccc(Cl)cc1

>  <uuid>
2508cabb-b90a-46d8-b9be-1e9574bd8ea4

$$$$
2508cabb-b90a-46d8-b9be-1e9574bd8ea4
  rDOCK(R)          3D
libRbt.so/2013.1/901 2013/11/27
 16 17  0  0  0  0  0  0  0  0999 V2000
    0.4842   25.0758    4.0039 O   0  5  0  0  0  0
   -0.6926   25.0879    4.5050 C   0  0  0  0  0  0
   -1.1748   23.9834    5.2411 C   0  0  0  0  0  0
   -2.4520   23.9269    5.8182 C   0  0  0  0  0  0
   -3.3224   24.9969    5.6812 C   0  0  0  0  0  0
   -2.9080   26.1149    4.9677 C   0  0  0  0  0  0
   -1.6215   26.1596    4.3923 C   0  0  0  0  0  0
   -1.2439   27.3882    3.6419 C   0  0  0  0  0  0
   -2.0326   28.4222    3.5387 N   0  0  0  0  0  0
   -1.5245   29.4951    2.7982 C   0  0  0  0  0  0
   -1.6438   30.8020    3.2784 C   0  0  0  0  0  0
   -1.1139   31.8731    2.5550 C   0  0  0  0  0  0
   -0.4550   31.6315    1.3505 C   0  0  0  0  0  0
    0.2046   32.9484    0.4584 Cl  0  0  0  0  0  0
   -0.3211   30.3315    0.8655 C   0  0  0  0  0  0
   -0.8535   29.2651    1.5941 C   0  0  0  0  0  0
  1  2  1  0  0  0
  2  3  2  0  0  0
  3  4  1  0  0  0
  4  5  2  0  0  0
  5  6  1  0  0  0
  6  7  2  0  0  0
  7  8  1  0  0  0
  8  9  2  0  0  0
  9 10  1  0  0  0
 10 11  2  0  0  0
 11 12  1  0  0  0
 12 13  2  0  0  0
 13 14  1  0  0  0
 13 15  1  0  0  0
 15 16  2  0  0  0
  7  2  1  0  0  0
 16 10  1  0  0  0
M  END
>  <CHROM.0>
-59.88758699,68.81928833

>  <CHROM.1>
-177.72148387,-134.75205449,-1.13040762,28.41554389,3.14110937,-1.77856617
0.55013350,-0.39312583

>  <Name>
2508cabb-b90a-46d8-b9be-1e9574bd8ea4

>  <RI>
1.84702e+07

>  <Rbt.Current_Directory>
/data/work/jku/5V6S/work/40/8dba899c20c42488f2b1a17844994e

>  <Rbt.Executable>
rbdock ($Id: //depot/dev/client3/rdock/2013.1/src/exe/rbdock.cxx#4 $)

>  <Rbt.Library>
libRbt.so (2013.1, Build901 2013/11/27)

>  <Rbt.Parameter_File>
/rDock_2013.1_src/data/scripts/dock.prm

>  <Rbt.Receptor>
docking.prm

>  <SCORE>
-13.2666

>  <SCORE.INTER>
-11.0807

>  <SCORE.INTER.CONST>
1

>  <SCORE.INTER.POLAR>
0

>  <SCORE.INTER.REPUL>
0

>  <SCORE.INTER.ROT>
2

>  <SCORE.INTER.VDW>
-18.4807

>  <SCORE.INTER.norm>
-0.692544

>  <SCORE.INTRA>
-0.672317

>  <SCORE.INTRA.DIHEDRAL>
-3.27062

>  <SCORE.INTRA.DIHEDRAL.0>
6.39772

>  <SCORE.INTRA.POLAR>
0

>  <SCORE.INTRA.POLAR.0>
0

>  <SCORE.INTRA.REPUL>
0

>  <SCORE.INTRA.REPUL.0>
0

>  <SCORE.INTRA.VDW>
0.962992

>  <SCORE.INTRA.VDW.0>
-0.259542

>  <SCORE.INTRA.norm>
-0.0420198

>  <SCORE.RESTR>
0

>  <SCORE.RESTR.CAVITY>
0

>  <SCORE.RESTR.norm>
0

>  <SCORE.SYSTEM>
-1.51363

>  <SCORE.SYSTEM.CONST>
0

>  <SCORE.SYSTEM.DIHEDRAL>
0.384687

>  <SCORE.SYSTEM.POLAR>
-0.502862

>  <SCORE.SYSTEM.VDW>
0.003758

>  <SCORE.SYSTEM.norm>
-0.0946019

>  <SCORE.heavy>
16

>  <SCORE.norm>
-0.829165

>  <enum_code>
M

>  <enum_smi>
[O-]c1ccccc1/C=N/c1ccc(Cl)cc1

>  <sha256>
813ba6512c1cc078b45b435424e0b61f270be0ff8107213ae8328c50911fa2cc

>  <std_smi>
Oc1ccccc1/C=N/c1ccc(Cl)cc1

>  <uuid>
2508cabb-b90a-46d8-b9be-1e9574bd8ea4

$$$$
2508cabb-b90a-46d8-b9be-1e9574bd8ea4
  rDOCK(R)          3D
libRbt.so/2013.1/901 2013/11/27
 16 17  0  0  0  0  0  0  0  0999 V2000
   -3.5670   29.4332    4.7888 O   0  5  0  0  0  0
   -2.9986   28.2879    4.8251 C   0  0  0  0  0  0
   -3.4922   27.2636    5.6627 C   0  0  0  0  0  0
   -2.9208   25.9859    5.7537 C   0  0  0  0  0  0
   -1.8057   25.6695    4.9937 C   0  0  0  0  0  0
   -1.2710   26.6343    4.1486 C   0  0  0  0  0  0
   -1.8544   27.9153    4.0660 C   0  0  0  0  0  0
   -1.2299   28.8993    3.1404 C   0  0  0  0  0  0
   -1.6317   30.1371    3.0508 N   0  0  0  0  0  0
   -0.9368   30.9304    2.1314 C   0  0  0  0  0  0
   -0.8238   32.3085    2.3336 C   0  0  0  0  0  0
   -0.1078   33.0998    1.4322 C   0  0  0  0  0  0
    0.5036   32.5056    0.3293 C   0  0  0  0  0  0
    1.3919   33.4765   -0.7813 Cl  0  0  0  0  0  0
    0.4061   31.1306    0.1216 C   0  0  0  0  0  0
   -0.3115   30.3453    1.0271 C   0  0  0  0  0  0
  1  2  1  0  0  0
  2  3  2  0  0  0
  3  4  1  0  0  0
  4  5  2  0  0  0
  5  6  1  0  0  0
  6  7  2  0  0  0
  7  8  1  0  0  0
  8  9  2  0  0  0
  9 10  1  0  0  0
 10 11  2  0  0  0
 11 12  1  0  0  0
 12 13  2  0  0  0
 13 14  1  0  0  0
 13 15  1  0  0  0
 15 16  2  0  0  0
  7  2  1  0  0  0
 16 10  1  0  0  0
M  END
>  <CHROM.0>
-59.88758699,68.74145287

>  <CHROM.1>
4.65181701,-151.33246182,-1.06005209,29.99560345,2.60331626,2.16560212,-0.76534608
2.86241514

>  <Name>
2508cabb-b90a-46d8-b9be-1e9574bd8ea4

>  <RI>
1.84702e+07

>  <Rbt.Current_Directory>
/data/work/jku/5V6S/work/40/8dba899c20c42488f2b1a17844994e

>  <Rbt.Executable>
rbdock ($Id: //depot/dev/client3/rdock/2013.1/src/exe/rbdock.cxx#4 $)

>  <Rbt.Library>
libRbt.so (2013.1, Build901 2013/11/27)

>  <Rbt.Parameter_File>
/rDock_2013.1_src/data/scripts/dock.prm

>  <Rbt.Receptor>
docking.prm

>  <SCORE>
-12.8009

>  <SCORE.INTER>
-10.3461

>  <SCORE.INTER.CONST>
1

>  <SCORE.INTER.POLAR>
0

>  <SCORE.INTER.REPUL>
0

>  <SCORE.INTER.ROT>
2

>  <SCORE.INTER.VDW>
-17.7461

>  <SCORE.INTER.norm>
-0.646632

>  <SCORE.INTRA>
-0.941304

>  <SCORE.INTRA.DIHEDRAL>
-4.93988

>  <SCORE.INTRA.DIHEDRAL.0>
6.39772

>  <SCORE.INTRA.POLAR>
0

>  <SCORE.INTRA.POLAR.0>
0

>  <SCORE.INTRA.REPUL>
0

>  <SCORE.INTRA.REPUL.0>
0

>  <SCORE.INTRA.VDW>
1.52864

>  <SCORE.INTRA.VDW.0>
-0.259542

>  <SCORE.INTRA.norm>
-0.0588315

>  <SCORE.RESTR>
0

>  <SCORE.RESTR.CAVITY>
0

>  <SCORE.RESTR.norm>
0

>  <SCORE.SYSTEM>
-1.51353

>  <SCORE.SYSTEM.CONST>
0

>  <SCORE.SYSTEM.DIHEDRAL>
0.378177

>  <SCORE.SYSTEM.POLAR>
-0.502801

>  <SCORE.SYSTEM.VDW>
0.00689951

>  <SCORE.SYSTEM.norm>
-0.0945959

>  <SCORE.heavy>
16

>  <SCORE.norm>
-0.800059

>  <enum_code>
M

>  <enum_smi>
[O-]c1ccccc1/C=N/c1ccc(Cl)cc1

>  <sha256>
813ba6512c1cc078b45b435424e0b61f270be0ff8107213ae8328c50911fa2cc

>  <std_smi>
Oc1ccccc1/C=N/c1ccc(Cl)cc1

>  <uuid>
2508cabb-b90a-46d8-b9be-1e9574bd8ea4

$$$$
2508cabb-b90a-46d8-b9be-1e9574bd8ea4
  rDOCK(R)          3D
libRbt.so/2013.1/901 2013/11/27
 16 17  0  0  0  0  0  0  0  0999 V2000
   -3.7504   29.7181    4.6403 O   0  5  0  0  0  0
   -3.2314   28.5527    4.7330 C   0  0  0  0  0  0
   -3.8099   27.5693    5.5651 C   0  0  0  0  0  0
   -3.2962   26.2728    5.7156 C   0  0  0  0  0  0
   -2.1556   25.8947    5.0247 C   0  0  0  0  0  0
   -1.5381   26.8169    4.1887 C   0  0  0  0  0  0
   -2.0641   28.1173    4.0459 C   0  0  0  0  0  0
   -1.3517   29.0532    3.1339 C   0  0  0  0  0  0
   -1.7025   30.3014    2.9896 N   0  0  0  0  0  0
   -0.9273   31.0445    2.0928 C   0  0  0  0  0  0
   -0.3232   30.4200    0.9982 C   0  0  0  0  0  0
    0.4292   31.1633    0.0856 C   0  0  0  0  0  0
    0.5690   32.5384    0.2670 C   0  0  0  0  0  0
    1.4910   33.4593   -0.8586 Cl  0  0  0  0  0  0
   -0.0364   33.1745    1.3497 C   0  0  0  0  0  0
   -0.7874   32.4250    2.2584 C   0  0  0  0  0  0
  1  2  1  0  0  0
  2  3  2  0  0  0
  3  4  1  0  0  0
  4  5  2  0  0  0
  5  6  1  0  0  0
  6  7  2  0  0  0
  7  8  1  0  0  0
  8  9  2  0  0  0
  9 10  1  0  0  0
 10 11  2  0  0  0
 11 12  1  0  0  0
 12 13  2  0  0  0
 13 14  1  0  0  0
 13 15  1  0  0  0
 15 16  2  0  0  0
  7  2  1  0  0  0
 16 10  1  0  0  0
M  END
>  <CHROM.0>
-59.88758699,69.11836286

>  <CHROM.1>
4.27000881,30.17290555,-1.15508312,30.13664293,2.54973873,2.22566575,-0.74648575
2.88168593

>  <Name>
2508cabb-b90a-46d8-b9be-1e9574bd8ea4

>  <RI>
1.84702e+07

>  <Rbt.Current_Directory>
/data/work/jku/5V6S/work/40/8dba899c20c42488f2b1a17844994e

>  <Rbt.Executable>
rbdock ($Id: //depot/dev/client3/rdock/2013.1/src/exe/rbdock.cxx#4 $)

>  <Rbt.Library>
libRbt.so (2013.1, Build901 2013/11/27)

>  <Rbt.Parameter_File>
/rDock_2013.1_src/data/scripts/dock.prm

>  <Rbt.Receptor>
docking.prm

>  <SCORE>
-12.9908

>  <SCORE.INTER>
-10.4351

>  <SCORE.INTER.CONST>
1

>  <SCORE.INTER.POLAR>
0

>  <SCORE.INTER.REPUL>
0

>  <SCORE.INTER.ROT>
2

>  <SCORE.INTER.VDW>
-17.8351

>  <SCORE.INTER.norm>
-0.652194

>  <SCORE.INTRA>
-1.04222

>  <SCORE.INTRA.DIHEDRAL>
-4.81272

>  <SCORE.INTRA.DIHEDRAL.0>
6.39772

>  <SCORE.INTRA.POLAR>
0

>  <SCORE.INTRA.POLAR.0>
0

>  <SCORE.INTRA.REPUL>
0

>  <SCORE.INTRA.REPUL.0>
0

>  <SCORE.INTRA.VDW>
1.36414

>  <SCORE.INTRA.VDW.0>
-0.259542

>  <SCORE.INTRA.norm>
-0.065139

>  <SCORE.RESTR>
0

>  <SCORE.RESTR.CAVITY>
0

>  <SCORE.RESTR.norm>
0

>  <SCORE.SYSTEM>
-1.51346

>  <SCORE.SYSTEM.CONST>
0

>  <SCORE.SYSTEM.DIHEDRAL>
0.410198

>  <SCORE.SYSTEM.POLAR>
-0.503053

>  <SCORE.SYSTEM.VDW>
-0.00818368

>  <SCORE.SYSTEM.norm>
-0.0945915

>  <SCORE.heavy>
16

>  <SCORE.norm>
-0.811924

>  <enum_code>
M

>  <enum_smi>
[O-]c1ccccc1/C=N/c1ccc(Cl)cc1

>  <sha256>
813ba6512c1cc078b45b435424e0b61f270be0ff8107213ae8328c50911fa2cc

>  <std_smi>
Oc1ccccc1/C=N/c1ccc(Cl)cc1

>  <uuid>
2508cabb-b90a-46d8-b9be-1e9574bd8ea4

$$$$
2508cabb-b90a-46d8-b9be-1e9574bd8ea4
  rDOCK(R)          3D
libRbt.so/2013.1/901 2013/11/27
 16 17  0  0  0  0  0  0  0  0999 V2000
   -3.9163   27.1801    4.9638 O   0  5  0  0  0  0
   -3.0640   26.2278    5.0169 C   0  0  0  0  0  0
   -3.3619   25.0303    5.7035 C   0  0  0  0  0  0
   -2.4775   23.9462    5.8029 C   0  0  0  0  0  0
   -1.2282   24.0139    5.2063 C   0  0  0  0  0  0
   -0.8738   25.1660    4.5149 C   0  0  0  0  0  0
   -1.7717   26.2491    4.4222 C   0  0  0  0  0  0
   -1.3264   27.4515    3.6665 C   0  0  0  0  0  0
   -2.0500   28.5327    3.5708 N   0  0  0  0  0  0
   -1.4841   29.5715    2.8238 C   0  0  0  0  0  0
   -0.8405   29.2996    1.6135 C   0  0  0  0  0  0
   -0.2979   30.3371    0.8516 C   0  0  0  0  0  0
   -0.4087   31.6520    1.3010 C   0  0  0  0  0  0
    0.2537   32.9345    0.3621 Cl  0  0  0  0  0  0
   -1.0565   31.9372    2.5020 C   0  0  0  0  0  0
   -1.5967   30.8947    3.2589 C   0  0  0  0  0  0
  1  2  1  0  0  0
  2  3  2  0  0  0
  3  4  1  0  0  0
  4  5  2  0  0  0
  5  6  1  0  0  0
  6  7  2  0  0  0
  7  8  1  0  0  0
  8  9  2  0  0  0
  9 10  1  0  0  0
 10 11  2  0  0  0
 11 12  1  0  0  0
 12 13  2  0  0  0
 13 14  1  0  0  0
 13 15  1  0  0  0
 15 16  2  0  0  0
  7  2  1  0  0  0
 16 10  1  0  0  0
M  END
>  <CHROM.0>
-59.88758699,69.04572375

>  <CHROM.1>
3.29875428,43.00443110,-1.44452828,28.60097142,3.19229929,1.88893299,-0.59899821
2.78243493

>  <Name>
2508cabb-b90a-46d8-b9be-1e9574bd8ea4

>  <RI>
1.84702e+07

>  <Rbt.Current_Directory>
/data/work/jku/5V6S/work/40/8dba899c20c42488f2b1a17844994e

>  <Rbt.Executable>
rbdock ($Id: //depot/dev/client3/rdock/2013.1/src/exe/rbdock.cxx#4 $)

>  <Rbt.Library>
libRbt.so (2013.1, Build901 2013/11/27)

>  <Rbt.Parameter_File>
/rDock_2013.1_src/data/scripts/dock.prm

>  <Rbt.Receptor>
docking.prm

>  <SCORE>
-12.8724

>  <SCORE.INTER>
-10.4025

>  <SCORE.INTER.CONST>
1

>  <SCORE.INTER.POLAR>
0

>  <SCORE.INTER.REPUL>
0

>  <SCORE.INTER.ROT>
2

>  <SCORE.INTER.VDW>
-17.8025

>  <SCORE.INTER.norm>
-0.650157

>  <SCORE.INTRA>
-0.956316

>  <SCORE.INTRA.DIHEDRAL>
-3.49825

>  <SCORE.INTRA.DIHEDRAL.0>
6.39772

>  <SCORE.INTRA.POLAR>
0

>  <SCORE.INTRA.POLAR.0>
0

>  <SCORE.INTRA.REPUL>
0

>  <SCORE.INTRA.REPUL.0>
0

>  <SCORE.INTRA.VDW>
0.792807

>  <SCORE.INTRA.VDW.0>
-0.259542

>  <SCORE.INTRA.norm>
-0.0597698

>  <SCORE.RESTR>
0

>  <SCORE.RESTR.CAVITY>
0

>  <SCORE.RESTR.norm>
0

>  <SCORE.SYSTEM>
-1.51358

>  <SCORE.SYSTEM.CONST>
0

>  <SCORE.SYSTEM.DIHEDRAL>
0.40393

>  <SCORE.SYSTEM.POLAR>
-0.503013

>  <SCORE.SYSTEM.VDW>
-0.00530207

>  <SCORE.SYSTEM.norm>
-0.0945988

>  <SCORE.heavy>
16

>  <SCORE.norm>
-0.804525

>  <enum_code>
M

>  <enum_smi>
[O-]c1ccccc1/C=N/c1ccc(Cl)cc1

>  <sha256>
813ba6512c1cc078b45b435424e0b61f270be0ff8107213ae8328c50911fa2cc

>  <std_smi>
Oc1ccccc1/C=N/c1ccc(Cl)cc1

>  <uuid>
2508cabb-b90a-46d8-b9be-1e9574bd8ea4

$$$$
eedbca9d-7575-4338-82c9-fc99e2375980
  rDOCK(R)          3D
libRbt.so/2013.1/901 2013/11/27
 18 19  0  0  0  0  0  0  0  0999 V2000
   -1.7131   24.3907    6.8226 N   0  0  0  0  0  0
   -1.5482   25.4311    5.9641 C   0  0  0  0  0  0
   -1.5131   25.2627    4.6794 N   0  0  0  0  0  0
   -1.2337   26.3251    3.8099 N   0  0  0  0  0  0
   -1.5822   27.5346    4.1345 C   0  0  0  0  0  0
   -1.3203   28.6313    3.1556 C   0  0  0  0  0  0
   -0.9273   28.3538    1.8390 C   0  0  0  0  0  0
   -0.6754   29.3975    0.9440 C   0  0  0  0  0  0
   -0.8084   30.7233    1.3578 C   0  0  0  0  0  0
   -1.1910   31.0002    2.6772 C   0  0  0  0  0  0
   -1.3300   32.3950    3.1129 N   0  3  0  0  0  0
   -1.8287   32.6055    4.2268 O   0  0  0  0  0  0
   -0.9467   33.2802    2.3347 O   0  5  0  0  0  0
   -1.4446   29.9610    3.5810 C   0  0  0  0  0  0
   -2.2430   27.8829    5.4445 C   0  0  0  0  0  0
   -1.4036   26.9732    6.7554 S   0  0  0  0  0  0
   -2.2054   23.6158    6.3926 H   0  0  0  0  0  0
   -0.8655   24.1217    7.3057 H   0  0  0  0  0  0
  1  2  1  0  0  0
  2  3  2  0  0  0
  3  4  1  0  0  0
  4  5  2  0  0  0
  5  6  1  0  0  0
  6  7  2  0  0  0
  7  8  1  0  0  0
  8  9  2  0  0  0
  9 10  1  0  0  0
 10 11  1  0  0  0
 11 12  2  0  0  0
 11 13  1  0  0  0
 10 14  2  0  0  0
  5 15  1  0  0  0
 15 16  1  0  0  0
 16  2  1  0  0  0
 14  6  1  0  0  0
  1 17  1  0  0  0
  1 18  1  0  0  0
M  END
>  <CHROM.0>
-59.88758699,68.75709027

>  <CHROM.1>
-26.04459331,10.86447827,-1.36727685,28.65796345,4.07066633,1.89338975,-1.38823210
2.94083025

>  <Name>
eedbca9d-7575-4338-82c9-fc99e2375980

>  <RI>
2.15463e+07

>  <Rbt.Current_Directory>
/data/work/jku/5V6S/work/40/8dba899c20c42488f2b1a17844994e

>  <Rbt.Executable>
rbdock ($Id: //depot/dev/client3/rdock/2013.1/src/exe/rbdock.cxx#4 $)

>  <Rbt.Library>
libRbt.so (2013.1, Build901 2013/11/27)

>  <Rbt.Parameter_File>
/rDock_2013.1_src/data/scripts/dock.prm

>  <Rbt.Receptor>
docking.prm

>  <SCORE>
-12.3317

>  <SCORE.INTER>
-9.78873

>  <SCORE.INTER.CONST>
1

>  <SCORE.INTER.POLAR>
0

>  <SCORE.INTER.REPUL>
0

>  <SCORE.INTER.ROT>
2

>  <SCORE.INTER.VDW>
-17.1887

>  <SCORE.INTER.norm>
-0.611796

>  <SCORE.INTRA>
-1.02936

>  <SCORE.INTRA.DIHEDRAL>
-2.70309

>  <SCORE.INTRA.DIHEDRAL.0>
3.71038

>  <SCORE.INTRA.POLAR>
0

>  <SCORE.INTRA.POLAR.0>
0

>  <SCORE.INTRA.REPUL>
0

>  <SCORE.INTRA.REPUL.0>
0

>  <SCORE.INTRA.VDW>
0.322179

>  <SCORE.INTRA.VDW.0>
0.029411

>  <SCORE.INTRA.norm>
-0.0643353

>  <SCORE.RESTR>
0

>  <SCORE.RESTR.CAVITY>
0

>  <SCORE.RESTR.norm>
0

>  <SCORE.SYSTEM>
-1.51356

>  <SCORE.SYSTEM.CONST>
0

>  <SCORE.SYSTEM.DIHEDRAL>
0.379481

>  <SCORE.SYSTEM.POLAR>
-0.502814

>  <SCORE.SYSTEM.VDW>
0.00626725

>  <SCORE.SYSTEM.norm>
-0.0945974

>  <SCORE.heavy>
16

>  <SCORE.norm>
-0.770728

>  <enum_code>
B

>  <enum_smi>
NC1=NN=C(c2cccc([N+](=O)[O-])c2)CS1

>  <sha256>
faad9480fd3d245006c7010a0e3f3f189aeed6552d5cd6bb949d5881145e517a

>  <std_smi>
NC1=NN=C(c2cccc([N+](=O)[O-])c2)CS1

>  <uuid>
eedbca9d-7575-4338-82c9-fc99e2375980

$$$$
eedbca9d-7575-4338-82c9-fc99e2375980
  rDOCK(R)          3D
libRbt.so/2013.1/901 2013/11/27
 18 19  0  0  0  0  0  0  0  0999 V2000
    1.7416   33.8875   -1.1262 N   0  0  0  0  0  0
    1.1561   33.0349   -0.2449 C   0  0  0  0  0  0
    0.0432   33.3231    0.3538 N   0  0  0  0  0  0
   -0.4943   32.4866    1.3408 N   0  0  0  0  0  0
   -0.2886   31.2044    1.2835 C   0  0  0  0  0  0
   -0.9271   30.3401    2.3201 C   0  0  0  0  0  0
   -0.8723   28.9419    2.2372 C   0  0  0  0  0  0
   -1.4885   28.1534    3.2130 C   0  0  0  0  0  0
   -2.1674   28.7538    4.2736 C   0  0  0  0  0  0
   -2.2310   30.1517    4.3503 C   0  0  0  0  0  0
   -2.9461   30.7836    5.4657 N   0  3  0  0  0  0
   -2.8425   32.0106    5.5974 O   0  0  0  0  0  0
   -3.6051   30.0484    6.2149 O   0  5  0  0  0  0
   -1.6173   30.9497    3.3768 C   0  0  0  0  0  0
    0.5550   30.5476    0.2200 C   0  0  0  0  0  0
    2.0340   31.5501   -0.0214 S   0  0  0  0  0  0
    2.7488   33.9177   -1.0158 H   0  0  0  0  0  0
    1.4368   33.7589   -2.0826 H   0  0  0  0  0  0
  1  2  1  0  0  0
  2  3  2  0  0  0
  3  4  1  0  0  0
  4  5  2  0  0  0
  5  6  1  0  0  0
  6  7  2  0  0  0
  7  8  1  0  0  0
  8  9  2  0  0  0
  9 10  1  0  0  0
 10 11  1  0  0  0
 11 12  2  0  0  0
 11 13  1  0  0  0
 10 14  2  0  0  0
  5 15  1  0  0  0
 15 16  1  0  0  0
 16  2  1  0  0  0
 14  6  1  0  0  0
  1 17  1  0  0  0
  1 18  1  0  0  0
M  END
>  <CHROM.0>
-59.88758699,67.67166854

>  <CHROM.1>
139.42698561,172.87491525,-0.66310004,31.10057452,2.26852331,0.38287407,0.90284941
-0.05751856

>  <Name>
eedbca9d-7575-4338-82c9-fc99e2375980

>  <RI>
2.15463e+07

>  <Rbt.Current_Directory>
/data/work/jku/5V6S/work/40/8dba899c20c42488f2b1a17844994e

>  <Rbt.Executable>
rbdock ($Id: //depot/dev/client3/rdock/2013.1/src/exe/rbdock.cxx#4 $)

>  <Rbt.Library>
libRbt.so (2013.1, Build901 2013/11/27)

>  <Rbt.Parameter_File>
/rDock_2013.1_src/data/scripts/dock.prm

>  <Rbt.Receptor>
docking.prm

>  <SCORE>
-14.082

>  <SCORE.INTER>
-11.371

>  <SCORE.INTER.CONST>
1

>  <SCORE.INTER.POLAR>
-1

>  <SCORE.INTER.REPUL>
0.00222499

>  <SCORE.INTER.ROT>
2

>  <SCORE.INTER.VDW>
-15.3821

>  <SCORE.INTER.norm>
-0.710686

>  <SCORE.INTRA>
-1.20501

>  <SCORE.INTRA.DIHEDRAL>
-3.07213

>  <SCORE.INTRA.DIHEDRAL.0>
3.71038

>  <SCORE.INTRA.POLAR>
0

>  <SCORE.INTRA.POLAR.0>
0

>  <SCORE.INTRA.REPUL>
0

>  <SCORE.INTRA.REPUL.0>
0

>  <SCORE.INTRA.VDW>
0.33106

>  <SCORE.INTRA.VDW.0>
0.029411

>  <SCORE.INTRA.norm>
-0.0753129

>  <SCORE.RESTR>
0.000363927

>  <SCORE.RESTR.CAVITY>
0.000363927

>  <SCORE.RESTR.norm>
2.27454e-05

>  <SCORE.SYSTEM>
-1.50634

>  <SCORE.SYSTEM.CONST>
0

>  <SCORE.SYSTEM.DIHEDRAL>
0.294182

>  <SCORE.SYSTEM.POLAR>
-0.501453

>  <SCORE.SYSTEM.VDW>
0.0515104

>  <SCORE.SYSTEM.norm>
-0.0941461

>  <SCORE.heavy>
16

>  <SCORE.norm>
-0.880122

>  <enum_code>
B

>  <enum_smi>
NC1=NN=C(c2cccc([N+](=O)[O-])c2)CS1

>  <sha256>
faad9480fd3d245006c7010a0e3f3f189aeed6552d5cd6bb949d5881145e517a

>  <std_smi>
NC1=NN=C(c2cccc([N+](=O)[O-])c2)CS1

>  <uuid>
eedbca9d-7575-4338-82c9-fc99e2375980

$$$$
eedbca9d-7575-4338-82c9-fc99e2375980
  rDOCK(R)          3D
libRbt.so/2013.1/901 2013/11/27
 18 19  0  0  0  0  0  0  0  0999 V2000
    1.3605   33.2796   -1.0219 N   0  0  0  0  0  0
    0.7638   32.7584    0.0820 C   0  0  0  0  0  0
    0.1574   33.5038    0.9518 N   0  0  0  0  0  0
   -0.3585   32.9696    2.1398 N   0  0  0  0  0  0
   -0.7885   31.7432    2.1637 C   0  0  0  0  0  0
   -1.3856   31.2292    3.4320 C   0  0  0  0  0  0
   -1.7265   32.0955    4.4800 C   0  0  0  0  0  0
   -2.2725   31.5896    5.6630 C   0  0  0  0  0  0
   -2.4765   30.2173    5.8104 C   0  0  0  0  0  0
   -2.1256   29.3506    4.7665 C   0  0  0  0  0  0
   -2.3392   27.9068    4.9218 N   0  3  0  0  0  0
   -2.1777   27.1883    3.9261 O   0  0  0  0  0  0
   -2.6773   27.4937    6.0404 O   0  5  0  0  0  0
   -1.5772   29.8484    3.5780 C   0  0  0  0  0  0
   -0.7209   30.8185    0.9744 C   0  0  0  0  0  0
    0.8902   31.0271    0.1924 S   0  0  0  0  0  0
    1.2681   32.6721   -1.8282 H   0  0  0  0  0  0
    1.1124   34.2437   -1.2035 H   0  0  0  0  0  0
  1  2  1  0  0  0
  2  3  2  0  0  0
  3  4  1  0  0  0
  4  5  2  0  0  0
  5  6  1  0  0  0
  6  7  2  0  0  0
  7  8  1  0  0  0
  8  9  2  0  0  0
  9 10  1  0  0  0
 10 11  1  0  0  0
 11 12  2  0  0  0
 11 13  1  0  0  0
 10 14  2  0  0  0
  5 15  1  0  0  0
 15 16  1  0  0  0
 16  2  1  0  0  0
 14  6  1  0  0  0
  1 17  1  0  0  0
  1 18  1  0  0  0
M  END
>  <CHROM.0>
-59.88758699,69.20933957

>  <CHROM.1>
-144.08706866,12.70301806,-0.93411366,30.77649846,2.76781343,-0.42185880
-1.07282252,-2.97396826

>  <Name>
eedbca9d-7575-4338-82c9-fc99e2375980

>  <RI>
2.15463e+07

>  <Rbt.Current_Directory>
/data/work/jku/5V6S/work/40/8dba899c20c42488f2b1a17844994e

>  <Rbt.Executable>
rbdock ($Id: //depot/dev/client3/rdock/2013.1/src/exe/rbdock.cxx#4 $)

>  <Rbt.Library>
libRbt.so (2013.1, Build901 2013/11/27)

>  <Rbt.Parameter_File>
/rDock_2013.1_src/data/scripts/dock.prm

>  <Rbt.Receptor>
docking.prm

>  <SCORE>
-19.6688

>  <SCORE.INTER>
-17.3344

>  <SCORE.INTER.CONST>
1

>  <SCORE.INTER.POLAR>
-1.62184

>  <SCORE.INTER.REPUL>
0

>  <SCORE.INTER.ROT>
2

>  <SCORE.INTER.VDW>
-19.2201

>  <SCORE.INTER.norm>
-1.0834

>  <SCORE.INTRA>
-0.821137

>  <SCORE.INTRA.DIHEDRAL>
-2.52739

>  <SCORE.INTRA.DIHEDRAL.0>
3.71038

>  <SCORE.INTRA.POLAR>
0

>  <SCORE.INTRA.POLAR.0>
0

>  <SCORE.INTRA.REPUL>
0

>  <SCORE.INTRA.REPUL.0>
0

>  <SCORE.INTRA.VDW>
0.442557

>  <SCORE.INTRA.VDW.0>
0.029411

>  <SCORE.INTRA.norm>
-0.0513211

>  <SCORE.RESTR>
0

>  <SCORE.RESTR.CAVITY>
0

>  <SCORE.RESTR.norm>
0

>  <SCORE.SYSTEM>
-1.51325

>  <SCORE.SYSTEM.CONST>
0

>  <SCORE.SYSTEM.DIHEDRAL>
0.418114

>  <SCORE.SYSTEM.POLAR>
-0.503096

>  <SCORE.SYSTEM.VDW>
-0.0117758

>  <SCORE.SYSTEM.norm>
-0.0945779

>  <SCORE.heavy>
16

>  <SCORE.norm>
-1.2293

>  <enum_code>
B

>  <enum_smi>
NC1=NN=C(c2cccc([N+](=O)[O-])c2)CS1

>  <sha256>
faad9480fd3d245006c7010a0e3f3f189aeed6552d5cd6bb949d5881145e517a

>  <std_smi>
NC1=NN=C(c2cccc([N+](=O)[O-])c2)CS1

>  <uuid>
eedbca9d-7575-4338-82c9-fc99e2375980

$$$$
eedbca9d-7575-4338-82c9-fc99e2375980
  rDOCK(R)          3D
libRbt.so/2013.1/901 2013/11/27
 18 19  0  0  0  0  0  0  0  0999 V2000
   -2.6297   34.1731    3.4058 N   0  0  0  0  0  0
   -2.2457   32.8739    3.5110 C   0  0  0  0  0  0
   -2.8327   32.0472    4.3186 N   0  0  0  0  0  0
   -2.3594   30.7410    4.4994 N   0  0  0  0  0  0
   -1.7654   30.1274    3.5194 C   0  0  0  0  0  0
   -1.3281   28.7158    3.7322 C   0  0  0  0  0  0
   -0.7033   27.9852    2.7120 C   0  0  0  0  0  0
   -0.3141   26.6606    2.9307 C   0  0  0  0  0  0
   -0.5505   26.0552    4.1652 C   0  0  0  0  0  0
   -1.1847   26.7827    5.1814 C   0  0  0  0  0  0
   -1.4343   26.1455    6.4800 N   0  3  0  0  0  0
   -1.8408   26.8605    7.4058 O   0  0  0  0  0  0
   -1.2147   24.9293    6.5741 O   0  5  0  0  0  0
   -1.5789   28.1099    4.9710 C   0  0  0  0  0  0
   -1.5036   30.7669    2.1791 C   0  0  0  0  0  0
   -0.9228   32.4498    2.4644 S   0  0  0  0  0  0
   -3.2204   34.4599    4.1782 H   0  0  0  0  0  0
   -1.8672   34.8100    3.2132 H   0  0  0  0  0  0
  1  2  1  0  0  0
  2  3  2  0  0  0
  3  4  1  0  0  0
  4  5  2  0  0  0
  5  6  1  0  0  0
  6  7  2  0  0  0
  7  8  1  0  0  0
  8  9  2  0  0  0
  9 10  1  0  0  0
 10 11  1  0  0  0
 11 12  2  0  0  0
 11 13  1  0  0  0
 10 14  2  0  0  0
  5 15  1  0  0  0
 15 16  1  0  0  0
 16  2  1  0  0  0
 14  6  1  0  0  0
  1 17  1  0  0  0
  1 18  1  0  0  0
M  END
>  <CHROM.0>
-59.88758699,68.73223226

>  <CHROM.1>
15.39554504,178.84959967,-1.49700881,29.35282731,4.17607869,1.78690150,1.09036946
-0.57292354

>  <Name>
eedbca9d-7575-4338-82c9-fc99e2375980

>  <RI>
2.15463e+07

>  <Rbt.Current_Directory>
/data/work/jku/5V6S/work/40/8dba899c20c42488f2b1a17844994e

>  <Rbt.Executable>
rbdock ($Id: //depot/dev/client3/rdock/2013.1/src/exe/rbdock.cxx#4 $)

>  <Rbt.Library>
libRbt.so (2013.1, Build901 2013/11/27)

>  <Rbt.Parameter_File>
/rDock_2013.1_src/data/scripts/dock.prm

>  <Rbt.Receptor>
docking.prm

>  <SCORE>
-11.3605

>  <SCORE.INTER>
-8.73552

>  <SCORE.INTER.CONST>
1

>  <SCORE.INTER.POLAR>
-1.3412

>  <SCORE.INTER.REPUL>
0

>  <SCORE.INTER.ROT>
2

>  <SCORE.INTER.VDW>
-11.5755

>  <SCORE.INTER.norm>
-0.54597

>  <SCORE.INTRA>
-1.1891

>  <SCORE.INTRA.DIHEDRAL>
-3.22415

>  <SCORE.INTRA.DIHEDRAL.0>
3.71038

>  <SCORE.INTRA.POLAR>
0

>  <SCORE.INTRA.POLAR.0>
0

>  <SCORE.INTRA.REPUL>
0

>  <SCORE.INTRA.REPUL.0>
0

>  <SCORE.INTRA.VDW>
0.422977

>  <SCORE.INTRA.VDW.0>
0.029411

>  <SCORE.INTRA.norm>
-0.0743187

>  <SCORE.RESTR>
0.0775957

>  <SCORE.RESTR.CAVITY>
0.0775957

>  <SCORE.RESTR.norm>
0.00484973

>  <SCORE.SYSTEM>
-1.51352

>  <SCORE.SYSTEM.CONST>
0

>  <SCORE.SYSTEM.DIHEDRAL>
0.37741

>  <SCORE.SYSTEM.POLAR>
-0.502793

>  <SCORE.SYSTEM.VDW>
0.00727258

>  <SCORE.SYSTEM.norm>
-0.094595

>  <SCORE.heavy>
16

>  <SCORE.norm>
-0.710034

>  <enum_code>
B

>  <enum_smi>
NC1=NN=C(c2cccc([N+](=O)[O-])c2)CS1

>  <sha256>
faad9480fd3d245006c7010a0e3f3f189aeed6552d5cd6bb949d5881145e517a

>  <std_smi>
NC1=NN=C(c2cccc([N+](=O)[O-])c2)CS1

>  <uuid>
eedbca9d-7575-4338-82c9-fc99e2375980

$$$$
eedbca9d-7575-4338-82c9-fc99e2375980
  rDOCK(R)          3D
libRbt.so/2013.1/901 2013/11/27
 18 19  0  0  0  0  0  0  0  0999 V2000
    0.6923   23.3648    4.4434 N   0  0  0  0  0  0
   -0.6140   23.7009    4.2799 C   0  0  0  0  0  0
   -1.5323   22.8096    4.0739 N   0  0  0  0  0  0
   -2.8566   23.1740    3.7981 N   0  0  0  0  0  0
   -3.3436   24.2693    4.3010 C   0  0  0  0  0  0
   -4.7763   24.5930    4.0328 C   0  0  0  0  0  0
   -5.6119   23.6936    3.3562 C   0  0  0  0  0  0
   -6.9467   24.0241    3.1054 C   0  0  0  0  0  0
   -7.4544   25.2549    3.5224 C   0  0  0  0  0  0
   -6.6157   26.1581    4.1893 C   0  0  0  0  0  0
   -7.1495   27.4535    4.6272 N   0  3  0  0  0  0
   -6.4363   28.1555    5.3568 O   0  0  0  0  0  0
   -8.2875   27.7636    4.2465 O   0  5  0  0  0  0
   -5.2769   25.8359    4.4442 C   0  0  0  0  0  0
   -2.5370   25.2230    5.1459 C   0  0  0  0  0  0
   -0.9134   25.4111    4.3847 S   0  0  0  0  0  0
    0.8106   22.6033    5.1021 H   0  0  0  0  0  0
    1.1930   23.2368    3.5733 H   0  0  0  0  0  0
  1  2  1  0  0  0
  2  3  2  0  0  0
  3  4  1  0  0  0
  4  5  2  0  0  0
  5  6  1  0  0  0
  6  7  2  0  0  0
  7  8  1  0  0  0
  8  9  2  0  0  0
  9 10  1  0  0  0
 10 11  1  0  0  0
 11 12  2  0  0  0
 11 13  1  0  0  0
 10 14  2  0  0  0
  5 15  1  0  0  0
 15 16  1  0  0  0
 16  2  1  0  0  0
 14  6  1  0  0  0
  1 17  1  0  0  0
  1 18  1  0  0  0
M  END
>  <CHROM.0>
-59.88758699,68.99412138

>  <CHROM.1>
-47.57710314,5.37753828,-4.08025694,25.13187035,4.24181021,-0.37136487,-0.15885048
0.36195401

>  <Name>
eedbca9d-7575-4338-82c9-fc99e2375980

>  <RI>
2.15463e+07

>  <Rbt.Current_Directory>
/data/work/jku/5V6S/work/40/8dba899c20c42488f2b1a17844994e

>  <Rbt.Executable>
rbdock ($Id: //depot/dev/client3/rdock/2013.1/src/exe/rbdock.cxx#4 $)

>  <Rbt.Library>
libRbt.so (2013.1, Build901 2013/11/27)

>  <Rbt.Parameter_File>
/rDock_2013.1_src/data/scripts/dock.prm

>  <Rbt.Receptor>
docking.prm

>  <SCORE>
-11.9913

>  <SCORE.INTER>
-9.3265

>  <SCORE.INTER.CONST>
1

>  <SCORE.INTER.POLAR>
0

>  <SCORE.INTER.REPUL>
0

>  <SCORE.INTER.ROT>
2

>  <SCORE.INTER.VDW>
-16.7265

>  <SCORE.INTER.norm>
-0.582906

>  <SCORE.INTRA>
-1.15113

>  <SCORE.INTRA.DIHEDRAL>
-3.08039

>  <SCORE.INTRA.DIHEDRAL.0>
3.71038

>  <SCORE.INTRA.POLAR>
0

>  <SCORE.INTRA.POLAR.0>
0

>  <SCORE.INTRA.REPUL>
0

>  <SCORE.INTRA.REPUL.0>
0

>  <SCORE.INTRA.VDW>
0.389063

>  <SCORE.INTRA.VDW.0>
0.029411

>  <SCORE.INTRA.norm>
-0.0719458

>  <SCORE.RESTR>
0

>  <SCORE.RESTR.CAVITY>
0

>  <SCORE.RESTR.norm>
0

>  <SCORE.SYSTEM>
-1.51364

>  <SCORE.SYSTEM.CONST>
0

>  <SCORE.SYSTEM.DIHEDRAL>
0.399505

>  <SCORE.SYSTEM.POLAR>
-0.502982

>  <SCORE.SYSTEM.VDW>
-0.00324769

>  <SCORE.SYSTEM.norm>
-0.0946022

>  <SCORE.heavy>
16

>  <SCORE.norm>
-0.749454

>  <enum_code>
B

>  <enum_smi>
NC1=NN=C(c2cccc([N+](=O)[O-])c2)CS1

>  <sha256>
faad9480fd3d245006c7010a0e3f3f189aeed6552d5cd6bb949d5881145e517a

>  <std_smi>
NC1=NN=C(c2cccc([N+](=O)[O-])c2)CS1

>  <uuid>
eedbca9d-7575-4338-82c9-fc99e2375980

$$$$
1cabe3a2-ca35-4035-baef-7e853967a7d0
  rDOCK(R)          3D
libRbt.so/2013.1/901 2013/11/27
 18 19  0  0  0  0  0  0  0  0999 V2000
   -5.1844   27.0766    5.6004 N   0  0  0  0  0  0
   -4.3648   27.9152    5.0676 C   0  0  0  0  0  0
   -3.9791   29.0796    5.6674 N   0  0  0  0  0  0
   -3.3433   30.1524    5.1125 N   0  0  0  0  0  0
   -2.5434   29.9149    4.1122 C   0  0  0  0  0  0
   -1.8492   31.0745    3.4754 C   0  0  0  0  0  0
   -1.9869   32.3750    3.9791 C   0  0  0  0  0  0
   -1.3353   33.4442    3.3576 C   0  0  0  0  0  0
   -0.5481   33.2242    2.2268 C   0  0  0  0  0  0
   -0.4196   31.9255    1.7166 C   0  0  0  0  0  0
    0.4049   31.6932    0.5240 N   0  3  0  0  0  0
    0.8941   32.6835   -0.0380 O   0  0  0  0  0  0
    0.5662   30.5227    0.1529 O   0  5  0  0  0  0
   -1.0689   30.8483    2.3332 C   0  0  0  0  0  0
   -2.2379   28.5208    3.5963 C   0  0  0  0  0  0
   -3.7409   27.5257    3.4912 S   0  0  0  0  0  0
   -5.2976   26.3098    4.9263 H   0  0  0  0  0  0
   -4.5236   29.2700    6.5074 H   0  0  0  0  0  0
  1  2  2  0  0  0
  2  3  1  0  0  0
  3  4  1  0  0  0
  4  5  2  0  0  0
  5  6  1  0  0  0
  6  7  2  0  0  0
  7  8  1  0  0  0
  8  9  2  0  0  0
  9 10  1  0  0  0
 10 11  1  0  0  0
 11 12  2  0  0  0
 11 13  1  0  0  0
 10 14  2  0  0  0
  5 15  1  0  0  0
 15 16  1  0  0  0
 16  2  1  0  0  0
 14  6  1  0  0  0
  1 17  1  0  0  0
  3 18  1  0  0  0
M  END
>  <CHROM.0>
-59.88758699,67.92150233

>  <CHROM.1>
3.59877185,-2.03978185,30.24352014,3.13233954,-2.83205637,0.88604682,0.45995852

>  <Name>
1cabe3a2-ca35-4035-baef-7e853967a7d0

>  <RI>
2.59576e+07

>  <Rbt.Current_Directory>
/data/work/jku/5V6S/work/40/8dba899c20c42488f2b1a17844994e

>  <Rbt.Executable>
rbdock ($Id: //depot/dev/client3/rdock/2013.1/src/exe/rbdock.cxx#4 $)

>  <Rbt.Library>
libRbt.so (2013.1, Build901 2013/11/27)

>  <Rbt.Parameter_File>
/rDock_2013.1_src/data/scripts/dock.prm

>  <Rbt.Receptor>
docking.prm

>  <SCORE>
-12.2883

>  <SCORE.INTER>
-9.75816

>  <SCORE.INTER.CONST>
1

>  <SCORE.INTER.POLAR>
0

>  <SCORE.INTER.REPUL>
0

>  <SCORE.INTER.ROT>
1

>  <SCORE.INTER.VDW>
-16.1582

>  <SCORE.INTER.norm>
-0.609885

>  <SCORE.INTRA>
-1.02113

>  <SCORE.INTRA.DIHEDRAL>
-3.15416

>  <SCORE.INTRA.DIHEDRAL.0>
3.27775

>  <SCORE.INTRA.POLAR>
0

>  <SCORE.INTRA.POLAR.0>
0

>  <SCORE.INTRA.REPUL>
0

>  <SCORE.INTRA.REPUL.0>
0

>  <SCORE.INTRA.VDW>
0.555949

>  <SCORE.INTRA.VDW.0>
0.0897452

>  <SCORE.INTRA.norm>
-0.0638206

>  <SCORE.RESTR>
0

>  <SCORE.RESTR.CAVITY>
0

>  <SCORE.RESTR.norm>
0

>  <SCORE.SYSTEM>
-1.50901

>  <SCORE.SYSTEM.CONST>
0

>  <SCORE.SYSTEM.DIHEDRAL>
0.312877

>  <SCORE.SYSTEM.POLAR>
-0.501852

>  <SCORE.SYSTEM.VDW>
0.0408502

>  <SCORE.SYSTEM.norm>
-0.094313

>  <SCORE.heavy>
16

>  <SCORE.norm>
-0.768019

>  <enum_code>
T

>  <enum_smi>
N=C1NN=C(c2cccc([N+](=O)[O-])c2)CS1

>  <sha256>
faad9480fd3d245006c7010a0e3f3f189aeed6552d5cd6bb949d5881145e517a

>  <std_smi>
NC1=NN=C(c2cccc([N+](=O)[O-])c2)CS1

>  <uuid>
1cabe3a2-ca35-4035-baef-7e853967a7d0

$$$$
1cabe3a2-ca35-4035-baef-7e853967a7d0
  rDOCK(R)          3D
libRbt.so/2013.1/901 2013/11/27
 18 19  0  0  0  0  0  0  0  0999 V2000
   -1.0793   24.2349    6.7449 N   0  0  0  0  0  0
   -1.1916   25.2727    5.9903 C   0  0  0  0  0  0
   -1.1532   25.2228    4.6264 N   0  0  0  0  0  0
   -0.9973   26.2504    3.7416 N   0  0  0  0  0  0
   -1.4501   27.4172    4.1027 C   0  0  0  0  0  0
   -1.2755   28.5626    3.1595 C   0  0  0  0  0  0
   -0.8926   28.3598    1.8266 C   0  0  0  0  0  0
   -0.7253   29.4500    0.9678 C   0  0  0  0  0  0
   -0.9323   30.7486    1.4342 C   0  0  0  0  0  0
   -1.3040   30.9519    2.7699 C   0  0  0  0  0  0
   -1.5178   32.3182    3.2631 N   0  3  0  0  0  0
   -1.2769   33.2536    2.4866 O   0  0  0  0  0  0
   -1.9296   32.4552    4.4231 O   0  5  0  0  0  0
   -1.4741   29.8652    3.6373 C   0  0  0  0  0  0
   -2.1924   27.6620    5.4034 C   0  0  0  0  0  0
   -1.3879   26.8113    6.7779 S   0  0  0  0  0  0
   -1.1318   24.5709    7.7141 H   0  0  0  0  0  0
   -0.8820   24.3000    4.2898 H   0  0  0  0  0  0
  1  2  2  0  0  0
  2  3  1  0  0  0
  3  4  1  0  0  0
  4  5  2  0  0  0
  5  6  1  0  0  0
  6  7  2  0  0  0
  7  8  1  0  0  0
  8  9  2  0  0  0
  9 10  1  0  0  0
 10 11  1  0  0  0
 11 12  2  0  0  0
 11 13  1  0  0  0
 10 14  2  0  0  0
  5 15  1  0  0  0
 15 16  1  0  0  0
 16  2  1  0  0  0
 14  6  1  0  0  0
  1 17  1  0  0  0
  3 18  1  0  0  0
M  END
>  <CHROM.0>
-59.88758699,68.98429429

>  <CHROM.1>
12.86187946,-1.31294754,28.57449648,4.09729751,1.52779904,-1.36386611,2.60383378

>  <Name>
1cabe3a2-ca35-4035-baef-7e853967a7d0

>  <RI>
2.59576e+07

>  <Rbt.Current_Directory>
/data/work/jku/5V6S/work/40/8dba899c20c42488f2b1a17844994e

>  <Rbt.Executable>
rbdock ($Id: //depot/dev/client3/rdock/2013.1/src/exe/rbdock.cxx#4 $)

>  <Rbt.Library>
libRbt.so (2013.1, Build901 2013/11/27)

>  <Rbt.Parameter_File>
/rDock_2013.1_src/data/scripts/dock.prm

>  <Rbt.Receptor>
docking.prm

>  <SCORE>
-12.8231

>  <SCORE.INTER>
-10.5034

>  <SCORE.INTER.CONST>
1

>  <SCORE.INTER.POLAR>
0

>  <SCORE.INTER.REPUL>
0

>  <SCORE.INTER.ROT>
1

>  <SCORE.INTER.VDW>
-16.9034

>  <SCORE.INTER.norm>
-0.656465

>  <SCORE.INTRA>
-0.806

>  <SCORE.INTRA.DIHEDRAL>
-2.44328

>  <SCORE.INTRA.DIHEDRAL.0>
3.27775

>  <SCORE.INTRA.POLAR>
0

>  <SCORE.INTRA.POLAR.0>
0

>  <SCORE.INTRA.REPUL>
0

>  <SCORE.INTRA.REPUL.0>
0

>  <SCORE.INTRA.VDW>
0.415642

>  <SCORE.INTRA.VDW.0>
0.0897452

>  <SCORE.INTRA.norm>
-0.050375

>  <SCORE.RESTR>
0

>  <SCORE.RESTR.CAVITY>
0

>  <SCORE.RESTR.norm>
0

>  <SCORE.SYSTEM>
-1.51364

>  <SCORE.SYSTEM.CONST>
0

>  <SCORE.SYSTEM.DIHEDRAL>
0.398665

>  <SCORE.SYSTEM.POLAR>
-0.502976

>  <SCORE.SYSTEM.VDW>
-0.00285576

>  <SCORE.SYSTEM.norm>
-0.0946027

>  <SCORE.heavy>
16

>  <SCORE.norm>
-0.801443

>  <enum_code>
T

>  <enum_smi>
N=C1NN=C(c2cccc([N+](=O)[O-])c2)CS1

>  <sha256>
faad9480fd3d245006c7010a0e3f3f189aeed6552d5cd6bb949d5881145e517a

>  <std_smi>
NC1=NN=C(c2cccc([N+](=O)[O-])c2)CS1

>  <uuid>
1cabe3a2-ca35-4035-baef-7e853967a7d0

$$$$
1cabe3a2-ca35-4035-baef-7e853967a7d0
  rDOCK(R)          3D
libRbt.so/2013.1/901 2013/11/27
 18 19  0  0  0  0  0  0  0  0999 V2000
   -8.4783   28.1352    4.1359 N   0  0  0  0  0  0
   -7.4989   27.3177    4.3132 C   0  0  0  0  0  0
   -6.5394   27.4846    5.2701 N   0  0  0  0  0  0
   -5.3348   26.8532    5.3862 N   0  0  0  0  0  0
   -5.2563   25.6371    4.9260 C   0  0  0  0  0  0
   -3.9437   24.9305    5.0246 C   0  0  0  0  0  0
   -3.7854   23.6156    4.5664 C   0  0  0  0  0  0
   -2.5490   22.9734    4.6809 C   0  0  0  0  0  0
   -1.4654   23.6358    5.2585 C   0  0  0  0  0  0
   -1.6268   24.9466    5.7268 C   0  0  0  0  0  0
   -0.4884   25.6433    6.3389 N   0  3  0  0  0  0
    0.5618   25.0034    6.4920 O   0  0  0  0  0  0
   -0.6432   26.8289    6.6618 O   0  5  0  0  0  0
   -2.8621   25.5977    5.6160 C   0  0  0  0  0  0
   -6.4386   24.8826    4.3466 C   0  0  0  0  0  0
   -7.4094   25.9417    3.2528 S   0  0  0  0  0  0
   -9.0273   27.7677    3.3493 H   0  0  0  0  0  0
   -6.6100   28.3958    5.7207 H   0  0  0  0  0  0
  1  2  2  0  0  0
  2  3  1  0  0  0
  3  4  1  0  0  0
  4  5  2  0  0  0
  5  6  1  0  0  0
  6  7  2  0  0  0
  7  8  1  0  0  0
  8  9  2  0  0  0
  9 10  1  0  0  0
 10 11  1  0  0  0
 11 12  2  0  0  0
 11 13  1  0  0  0
 10 14  2  0  0  0
  5 15  1  0  0  0
 15 16  1  0  0  0
 16  2  1  0  0  0
 14  6  1  0  0  0
  1 17  1  0  0  0
  3 18  1  0  0  0
M  END
>  <CHROM.0>
-59.88758699,68.91596811

>  <CHROM.1>
179.21728394,-4.21484536,25.66617528,5.00700571,-3.01328594,0.35831273,-2.76570764

>  <Name>
1cabe3a2-ca35-4035-baef-7e853967a7d0

>  <RI>
2.59576e+07

>  <Rbt.Current_Directory>
/data/work/jku/5V6S/work/40/8dba899c20c42488f2b1a17844994e

>  <Rbt.Executable>
rbdock ($Id: //depot/dev/client3/rdock/2013.1/src/exe/rbdock.cxx#4 $)

>  <Rbt.Library>
libRbt.so (2013.1, Build901 2013/11/27)

>  <Rbt.Parameter_File>
/rDock_2013.1_src/data/scripts/dock.prm

>  <Rbt.Receptor>
docking.prm

>  <SCORE>
-14.2206

>  <SCORE.INTER>
-11.5043

>  <SCORE.INTER.CONST>
1

>  <SCORE.INTER.POLAR>
0

>  <SCORE.INTER.REPUL>
0

>  <SCORE.INTER.ROT>
1

>  <SCORE.INTER.VDW>
-17.9043

>  <SCORE.INTER.norm>
-0.719021

>  <SCORE.INTRA>
-1.20265

>  <SCORE.INTRA.DIHEDRAL>
-3.26579

>  <SCORE.INTRA.DIHEDRAL.0>
3.27775

>  <SCORE.INTRA.POLAR>
0

>  <SCORE.INTRA.POLAR.0>
0

>  <SCORE.INTRA.REPUL>
0

>  <SCORE.INTRA.REPUL.0>
0

>  <SCORE.INTRA.VDW>
0.430246

>  <SCORE.INTRA.VDW.0>
0.0897452

>  <SCORE.INTRA.norm>
-0.0751656

>  <SCORE.RESTR>
0

>  <SCORE.RESTR.CAVITY>
0

>  <SCORE.RESTR.norm>
0

>  <SCORE.SYSTEM>
-1.51367

>  <SCORE.SYSTEM.CONST>
0

>  <SCORE.SYSTEM.DIHEDRAL>
0.392848

>  <SCORE.SYSTEM.POLAR>
-0.502932

>  <SCORE.SYSTEM.VDW>
-0.000124682

>  <SCORE.SYSTEM.norm>
-0.0946043

>  <SCORE.heavy>
16

>  <SCORE.norm>
-0.888791

>  <enum_code>
T

>  <enum_smi>
N=C1NN=C(c2cccc([N+](=O)[O-])c2)CS1

>  <sha256>
faad9480fd3d245006c7010a0e3f3f189aeed6552d5cd6bb949d5881145e517a

>  <std_smi>
NC1=NN=C(c2cccc([N+](=O)[O-])c2)CS1

>  <uuid>
1cabe3a2-ca35-4035-baef-7e853967a7d0

$$$$
1cabe3a2-ca35-4035-baef-7e853967a7d0
  rDOCK(R)          3D
libRbt.so/2013.1/901 2013/11/27
 18 19  0  0  0  0  0  0  0  0999 V2000
   -0.6716   21.8915    4.2858 N   0  0  0  0  0  0
   -0.9998   23.0923    4.6162 C   0  0  0  0  0  0
   -2.1749   23.4115    5.2338 N   0  0  0  0  0  0
   -2.7457   24.6411    5.3929 N   0  0  0  0  0  0
   -1.9407   25.6618    5.4774 C   0  0  0  0  0  0
   -2.5412   27.0208    5.6337 C   0  0  0  0  0  0
   -1.7567   28.1318    5.9717 C   0  0  0  0  0  0
   -2.3456   29.3906    6.1228 C   0  0  0  0  0  0
   -3.7204   29.5478    5.9444 C   0  0  0  0  0  0
   -4.5064   28.4347    5.6176 C   0  0  0  0  0  0
   -5.9540   28.5980    5.4339 N   0  3  0  0  0  0
   -6.4393   29.7157    5.6595 O   0  0  0  0  0  0
   -6.6032   27.6115    5.0608 O   0  5  0  0  0  0
   -3.9246   27.1698    5.4640 C   0  0  0  0  0  0
   -0.4283   25.5379    5.4807 C   0  0  0  0  0  0
    0.1275   24.3597    4.2304 S   0  0  0  0  0  0
    0.2483   21.9538    3.8329 H   0  0  0  0  0  0
   -2.8120   22.6169    5.2670 H   0  0  0  0  0  0
  1  2  2  0  0  0
  2  3  1  0  0  0
  3  4  1  0  0  0
  4  5  2  0  0  0
  5  6  1  0  0  0
  6  7  2  0  0  0
  7  8  1  0  0  0
  8  9  2  0  0  0
  9 10  1  0  0  0
 10 11  1  0  0  0
 11 12  2  0  0  0
 11 13  1  0  0  0
 10 14  2  0  0  0
  5 15  1  0  0  0
 15 16  1  0  0  0
 16  2  1  0  0  0
 14  6  1  0  0  0
  1 17  1  0  0  0
  3 18  1  0  0  0
M  END
>  <CHROM.0>
-59.88758699,68.64688964

>  <CHROM.1>
168.31497322,-2.74205516,26.33041452,5.25100143,0.86563502,0.03650673,-2.92225949

>  <Name>
1cabe3a2-ca35-4035-baef-7e853967a7d0

>  <RI>
2.59576e+07

>  <Rbt.Current_Directory>
/data/work/jku/5V6S/work/40/8dba899c20c42488f2b1a17844994e

>  <Rbt.Executable>
rbdock ($Id: //depot/dev/client3/rdock/2013.1/src/exe/rbdock.cxx#4 $)

>  <Rbt.Library>
libRbt.so (2013.1, Build901 2013/11/27)

>  <Rbt.Parameter_File>
/rDock_2013.1_src/data/scripts/dock.prm

>  <Rbt.Receptor>
docking.prm

>  <SCORE>
-12.986

>  <SCORE.INTER>
-10.4183

>  <SCORE.INTER.CONST>
1

>  <SCORE.INTER.POLAR>
-0.273946

>  <SCORE.INTER.REPUL>
0

>  <SCORE.INTER.ROT>
1

>  <SCORE.INTER.VDW>
-15.8869

>  <SCORE.INTER.norm>
-0.651146

>  <SCORE.INTRA>
-1.05437

>  <SCORE.INTRA.DIHEDRAL>
-2.89913

>  <SCORE.INTRA.DIHEDRAL.0>
3.27775

>  <SCORE.INTRA.POLAR>
0

>  <SCORE.INTRA.POLAR.0>
0

>  <SCORE.INTRA.REPUL>
0

>  <SCORE.INTRA.REPUL.0>
0

>  <SCORE.INTRA.VDW>
0.395194

>  <SCORE.INTRA.VDW.0>
0.0897452

>  <SCORE.INTRA.norm>
-0.0658982

>  <SCORE.RESTR>
0

>  <SCORE.RESTR.CAVITY>
0

>  <SCORE.RESTR.norm>
0

>  <SCORE.SYSTEM>
-1.51334

>  <SCORE.SYSTEM.CONST>
0

>  <SCORE.SYSTEM.DIHEDRAL>
0.37034

>  <SCORE.SYSTEM.POLAR>
-0.502719

>  <SCORE.SYSTEM.VDW>
0.010735

>  <SCORE.SYSTEM.norm>
-0.0945838

>  <SCORE.heavy>
16

>  <SCORE.norm>
-0.811628

>  <enum_code>
T

>  <enum_smi>
N=C1NN=C(c2cccc([N+](=O)[O-])c2)CS1

>  <sha256>
faad9480fd3d245006c7010a0e3f3f189aeed6552d5cd6bb949d5881145e517a

>  <std_smi>
NC1=NN=C(c2cccc([N+](=O)[O-])c2)CS1

>  <uuid>
1cabe3a2-ca35-4035-baef-7e853967a7d0

$$$$
1cabe3a2-ca35-4035-baef-7e853967a7d0
  rDOCK(R)          3D
libRbt.so/2013.1/901 2013/11/27
 18 19  0  0  0  0  0  0  0  0999 V2000
    1.3879   32.8535   -0.4884 N   0  0  0  0  0  0
    0.5971   32.3884    0.4156 C   0  0  0  0  0  0
    0.0814   33.1437    1.4294 N   0  0  0  0  0  0
   -0.5368   32.7255    2.5723 N   0  0  0  0  0  0
   -1.1954   31.6031    2.5132 C   0  0  0  0  0  0
   -1.8659   31.1142    3.7555 C   0  0  0  0  0  0
   -1.7818   31.8261    4.9598 C   0  0  0  0  0  0
   -2.4093   31.3406    6.1107 C   0  0  0  0  0  0
   -3.1185   30.1397    6.0694 C   0  0  0  0  0  0
   -3.1929   29.4223    4.8680 C   0  0  0  0  0  0
   -3.9352   28.1562    4.8244 N   0  3  0  0  0  0
   -4.4031   27.7276    5.8888 O   0  0  0  0  0  0
   -4.0532   27.5940    3.7271 O   0  5  0  0  0  0
   -2.5673   29.9015    3.7100 C   0  0  0  0  0  0
   -1.3630   30.7962    1.2390 C   0  0  0  0  0  0
    0.1910   30.6993    0.3248 S   0  0  0  0  0  0
    1.6220   32.0662   -1.1053 H   0  0  0  0  0  0
    0.5088   34.0679    1.4668 H   0  0  0  0  0  0
  1  2  2  0  0  0
  2  3  1  0  0  0
  3  4  1  0  0  0
  4  5  2  0  0  0
  5  6  1  0  0  0
  6  7  2  0  0  0
  7  8  1  0  0  0
  8  9  2  0  0  0
  9 10  1  0  0  0
 10 11  1  0  0  0
 11 12  2  0  0  0
 11 13  1  0  0  0
 10 14  2  0  0  0
  5 15  1  0  0  0
 15 16  1  0  0  0
 16  2  1  0  0  0
 14  6  1  0  0  0
  1 17  1  0  0  0
  3 18  1  0  0  0
M  END
>  <CHROM.0>
-59.88758699,69.23628403

>  <CHROM.1>
-0.76445244,-1.62853511,30.66631766,3.00103555,0.19899858,-0.93837339,-2.28716313

>  <Name>
1cabe3a2-ca35-4035-baef-7e853967a7d0

>  <RI>
2.59576e+07

>  <Rbt.Current_Directory>
/data/work/jku/5V6S/work/40/8dba899c20c42488f2b1a17844994e

>  <Rbt.Executable>
rbdock ($Id: //depot/dev/client3/rdock/2013.1/src/exe/rbdock.cxx#4 $)

>  <Rbt.Library>
libRbt.so (2013.1, Build901 2013/11/27)

>  <Rbt.Parameter_File>
/rDock_2013.1_src/data/scripts/dock.prm

>  <Rbt.Receptor>
docking.prm

>  <SCORE>
-15.3658

>  <SCORE.INTER>
-12.8149

>  <SCORE.INTER.CONST>
1

>  <SCORE.INTER.POLAR>
-1.08903

>  <SCORE.INTER.REPUL>
0.0315942

>  <SCORE.INTER.ROT>
1

>  <SCORE.INTER.VDW>
-15.6702

>  <SCORE.INTER.norm>
-0.800934

>  <SCORE.INTRA>
-1.04836

>  <SCORE.INTRA.DIHEDRAL>
-3.26563

>  <SCORE.INTRA.DIHEDRAL.0>
3.27775

>  <SCORE.INTRA.POLAR>
0

>  <SCORE.INTRA.POLAR.0>
0

>  <SCORE.INTRA.REPUL>
0

>  <SCORE.INTRA.REPUL.0>
0

>  <SCORE.INTRA.VDW>
0.58446

>  <SCORE.INTRA.VDW.0>
0.0897452

>  <SCORE.INTRA.norm>
-0.0655223

>  <SCORE.RESTR>
0.0106871

>  <SCORE.RESTR.CAVITY>
0.0106871

>  <SCORE.RESTR.norm>
0.000667941

>  <SCORE.SYSTEM>
-1.51317

>  <SCORE.SYSTEM.CONST>
0

>  <SCORE.SYSTEM.DIHEDRAL>
0.420473

>  <SCORE.SYSTEM.POLAR>
-0.503108

>  <SCORE.SYSTEM.VDW>
-0.0128361

>  <SCORE.SYSTEM.norm>
-0.0945729

>  <SCORE.heavy>
16

>  <SCORE.norm>
-0.960362

>  <enum_code>
T

>  <enum_smi>
N=C1NN=C(c2cccc([N+](=O)[O-])c2)CS1

>  <sha256>
faad9480fd3d245006c7010a0e3f3f189aeed6552d5cd6bb949d5881145e517a

>  <std_smi>
NC1=NN=C(c2cccc([N+](=O)[O-])c2)CS1

>  <uuid>
1cabe3a2-ca35-4035-baef-7e853967a7d0

$$$$
1c48cfe9-5785-48bf-8ad9-e7c94af8f072
  rDOCK(R)          3D
libRbt.so/2013.1/901 2013/11/27
 19 20  0  0  0  0  0  0  0  0999 V2000
    0.3813   32.3828    0.2903 N   0  0  0  0  0  0
   -0.2194   31.6797    1.1919 C   0  0  0  0  0  0
   -0.3624   30.3217    1.0777 N   0  0  0  0  0  0
   -1.2948   29.6025    1.7825 N   0  0  0  0  0  0
   -1.8676   30.0515    2.9609 C   0  0  0  0  0  0
   -2.6575   29.0707    3.7309 C   0  0  0  0  0  0
   -2.3551   27.7010    3.6754 C   0  0  0  0  0  0
   -3.1078   26.7734    4.4005 C   0  0  0  0  0  0
   -4.1756   27.2027    5.1882 C   0  0  0  0  0  0
   -4.4859   28.5678    5.2429 C   0  0  0  0  0  0
   -5.6125   29.0234    6.0661 N   0  3  0  0  0  0
   -6.1881   28.1824    6.7709 O   0  0  0  0  0  0
   -5.9241   30.2209    6.0036 O   0  5  0  0  0  0
   -3.7344   29.5031    4.5176 C   0  0  0  0  0  0
   -1.7569   31.3121    3.4169 C   0  0  0  0  0  0
   -0.8526   32.5389    2.5858 S   0  0  0  0  0  0
    0.3510   33.3565    0.6156 H   0  0  0  0  0  0
   -0.1402   30.0061    0.1354 H   0  0  0  0  0  0
   -1.1762   28.5875    1.7584 H   0  0  0  0  0  0
  1  2  2  0  0  0
  2  3  1  0  0  0
  3  4  1  0  0  0
  4  5  1  0  0  0
  5  6  1  0  0  0
  6  7  2  0  0  0
  7  8  1  0  0  0
  8  9  2  0  0  0
  9 10  1  0  0  0
 10 11  1  0  0  0
 11 12  2  0  0  0
 11 13  1  0  0  0
 10 14  2  0  0  0
  5 15  2  0  0  0
 15 16  1  0  0  0
 16  2  1  0  0  0
 14  6  1  0  0  0
  1 17  1  0  0  0
  3 18  1  0  0  0
  4 19  1  0  0  0
M  END
>  <CHROM.0>
-59.88758699,68.59275073

>  <CHROM.1>
29.20501362,-2.65154799,29.87783540,3.60874988,0.46362543,0.74131789,0.01593654

>  <Name>
1c48cfe9-5785-48bf-8ad9-e7c94af8f072

>  <RI>
4.32755e+07

>  <Rbt.Current_Directory>
/data/work/jku/5V6S/work/40/8dba899c20c42488f2b1a17844994e

>  <Rbt.Executable>
rbdock ($Id: //depot/dev/client3/rdock/2013.1/src/exe/rbdock.cxx#4 $)

>  <Rbt.Library>
libRbt.so (2013.1, Build901 2013/11/27)

>  <Rbt.Parameter_File>
/rDock_2013.1_src/data/scripts/dock.prm

>  <Rbt.Receptor>
docking.prm

>  <SCORE>
-15.8546

>  <SCORE.INTER>
-12.1392

>  <SCORE.INTER.CONST>
1

>  <SCORE.INTER.POLAR>
-0.882462

>  <SCORE.INTER.REPUL>
0.000379682

>  <SCORE.INTER.ROT>
1

>  <SCORE.INTER.VDW>
-15.5408

>  <SCORE.INTER.norm>
-0.758703

>  <SCORE.INTRA>
-2.20221

>  <SCORE.INTRA.DIHEDRAL>
-6.76739

>  <SCORE.INTRA.DIHEDRAL.0>
9.8014

>  <SCORE.INTRA.POLAR>
0

>  <SCORE.INTRA.POLAR.0>
0

>  <SCORE.INTRA.REPUL>
0

>  <SCORE.INTRA.REPUL.0>
0

>  <SCORE.INTRA.VDW>
1.18149

>  <SCORE.INTRA.VDW.0>
-0.624943

>  <SCORE.INTRA.norm>
-0.137638

>  <SCORE.RESTR>
0

>  <SCORE.RESTR.CAVITY>
0

>  <SCORE.RESTR.norm>
0

>  <SCORE.SYSTEM>
-1.51319

>  <SCORE.SYSTEM.CONST>
0

>  <SCORE.SYSTEM.DIHEDRAL>
0.365889

>  <SCORE.SYSTEM.POLAR>
-0.50267

>  <SCORE.SYSTEM.VDW>
0.0129401

>  <SCORE.SYSTEM.norm>
-0.0945745

>  <SCORE.heavy>
16

>  <SCORE.norm>
-0.990915

>  <enum_code>
T

>  <enum_smi>
N=C1NNC(c2cccc([N+](=O)[O-])c2)=CS1

>  <sha256>
faad9480fd3d245006c7010a0e3f3f189aeed6552d5cd6bb949d5881145e517a

>  <std_smi>
NC1=NN=C(c2cccc([N+](=O)[O-])c2)CS1

>  <uuid>
1c48cfe9-5785-48bf-8ad9-e7c94af8f072

$$$$
1c48cfe9-5785-48bf-8ad9-e7c94af8f072
  rDOCK(R)          3D
libRbt.so/2013.1/901 2013/11/27
 19 20  0  0  0  0  0  0  0  0999 V2000
    0.4430   22.4234    4.4706 N   0  0  0  0  0  0
   -0.5490   23.2052    4.7402 C   0  0  0  0  0  0
   -1.8154   22.9565    4.2796 N   0  0  0  0  0  0
   -2.7915   23.9186    4.2083 N   0  0  0  0  0  0
   -2.7717   25.0775    4.9665 C   0  0  0  0  0  0
   -4.0036   25.8907    4.9681 C   0  0  0  0  0  0
   -5.1927   25.3961    4.4098 C   0  0  0  0  0  0
   -6.3564   26.1698    4.4070 C   0  0  0  0  0  0
   -6.3457   27.4502    4.9596 C   0  0  0  0  0  0
   -5.1603   27.9515    5.5130 C   0  0  0  0  0  0
   -5.1430   29.3009    6.0905 N   0  3  0  0  0  0
   -6.2188   29.9120    6.1591 O   0  0  0  0  0  0
   -4.0529   29.7507    6.4705 O   0  5  0  0  0  0
   -3.9897   27.1800    5.5186 C   0  0  0  0  0  0
   -1.7043   25.4969    5.6692 C   0  0  0  0  0  0
   -0.2106   24.6145    5.7309 S   0  0  0  0  0  0
    1.2658   22.8319    4.9299 H   0  0  0  0  0  0
   -1.8100   22.2386    3.5574 H   0  0  0  0  0  0
   -3.7372   23.5723    4.0340 H   0  0  0  0  0  0
  1  2  2  0  0  0
  2  3  1  0  0  0
  3  4  1  0  0  0
  4  5  1  0  0  0
  5  6  1  0  0  0
  6  7  2  0  0  0
  7  8  1  0  0  0
  8  9  2  0  0  0
  9 10  1  0  0  0
 10 11  1  0  0  0
 11 12  2  0  0  0
 11 13  1  0  0  0
 10 14  2  0  0  0
  5 15  2  0  0  0
 15 16  1  0  0  0
 16  2  1  0  0  0
 14  6  1  0  0  0
  1 17  1  0  0  0
  3 18  1  0  0  0
  4 19  1  0  0  0
M  END
>  <CHROM.0>
-59.88758699,69.07314249

>  <CHROM.1>
10.11672558,-3.22890339,25.96878744,5.21788692,-0.78126257,-0.27989192,0.43438575

>  <Name>
1c48cfe9-5785-48bf-8ad9-e7c94af8f072

>  <RI>
4.32755e+07

>  <Rbt.Current_Directory>
/data/work/jku/5V6S/work/40/8dba899c20c42488f2b1a17844994e

>  <Rbt.Executable>
rbdock ($Id: //depot/dev/client3/rdock/2013.1/src/exe/rbdock.cxx#4 $)

>  <Rbt.Library>
libRbt.so (2013.1, Build901 2013/11/27)

>  <Rbt.Parameter_File>
/rDock_2013.1_src/data/scripts/dock.prm

>  <Rbt.Receptor>
docking.prm

>  <SCORE>
-15.4704

>  <SCORE.INTER>
-11.0067

>  <SCORE.INTER.CONST>
1

>  <SCORE.INTER.POLAR>
-0.294567

>  <SCORE.INTER.REPUL>
0

>  <SCORE.INTER.ROT>
1

>  <SCORE.INTER.VDW>
-16.4051

>  <SCORE.INTER.norm>
-0.687916

>  <SCORE.INTRA>
-2.95018

>  <SCORE.INTRA.DIHEDRAL>
-9.41096

>  <SCORE.INTRA.DIHEDRAL.0>
9.8014

>  <SCORE.INTRA.POLAR>
0

>  <SCORE.INTRA.POLAR.0>
0

>  <SCORE.INTRA.REPUL>
0

>  <SCORE.INTRA.REPUL.0>
0

>  <SCORE.INTRA.VDW>
1.7553

>  <SCORE.INTRA.VDW.0>
-0.624943

>  <SCORE.INTRA.norm>
-0.184386

>  <SCORE.RESTR>
0

>  <SCORE.RESTR.CAVITY>
0

>  <SCORE.RESTR.norm>
0

>  <SCORE.SYSTEM>
-1.51354

>  <SCORE.SYSTEM.CONST>
0

>  <SCORE.SYSTEM.DIHEDRAL>
0.40629

>  <SCORE.SYSTEM.POLAR>
-0.503028

>  <SCORE.SYSTEM.VDW>
-0.00639119

>  <SCORE.SYSTEM.norm>
-0.0945964

>  <SCORE.heavy>
16

>  <SCORE.norm>
-0.966899

>  <enum_code>
T

>  <enum_smi>
N=C1NNC(c2cccc([N+](=O)[O-])c2)=CS1

>  <sha256>
faad9480fd3d245006c7010a0e3f3f189aeed6552d5cd6bb949d5881145e517a

>  <std_smi>
NC1=NN=C(c2cccc([N+](=O)[O-])c2)CS1

>  <uuid>
1c48cfe9-5785-48bf-8ad9-e7c94af8f072

$$$$
1c48cfe9-5785-48bf-8ad9-e7c94af8f072
  rDOCK(R)          3D
libRbt.so/2013.1/901 2013/11/27
 19 20  0  0  0  0  0  0  0  0999 V2000
    0.4481   22.4723    4.4154 N   0  0  0  0  0  0
   -0.5476   23.2432    4.7022 C   0  0  0  0  0  0
   -1.8124   23.0000    4.2344 N   0  0  0  0  0  0
   -2.7925   23.9593    4.1847 N   0  0  0  0  0  0
   -2.7786   25.1000    4.9701 C   0  0  0  0  0  0
   -4.0140   25.9077    4.9895 C   0  0  0  0  0  0
   -5.2112   25.4039    4.4573 C   0  0  0  0  0  0
   -6.3783   26.1723    4.4712 C   0  0  0  0  0  0
   -6.3631   27.4566    5.0147 C   0  0  0  0  0  0
   -5.1697   27.9671    5.5421 C   0  0  0  0  0  0
   -5.1477   29.3205    6.1098 N   0  3  0  0  0  0
   -6.2248   29.9272    6.1946 O   0  0  0  0  0  0
   -4.0527   29.7778    6.4659 O   0  5  0  0  0  0
   -3.9956   27.2009    5.5308 C   0  0  0  0  0  0
   -1.7137   25.5074    5.6838 C   0  0  0  0  0  0
   -0.2163   24.6302    5.7264 S   0  0  0  0  0  0
    1.2686   22.8733    4.8852 H   0  0  0  0  0  0
   -1.8032   22.2994    3.4955 H   0  0  0  0  0  0
   -3.7366   23.6132    4.0012 H   0  0  0  0  0  0
  1  2  2  0  0  0
  2  3  1  0  0  0
  3  4  1  0  0  0
  4  5  1  0  0  0
  5  6  1  0  0  0
  6  7  2  0  0  0
  7  8  1  0  0  0
  8  9  2  0  0  0
  9 10  1  0  0  0
 10 11  1  0  0  0
 11 12  2  0  0  0
 11 13  1  0  0  0
 10 14  2  0  0  0
  5 15  2  0  0  0
 15 16  1  0  0  0
 16  2  1  0  0  0
 14  6  1  0  0  0
  1 17  1  0  0  0
  3 18  1  0  0  0
  4 19  1  0  0  0
M  END
>  <CHROM.0>
-59.88758699,69.38077653

>  <CHROM.1>
12.21224267,-3.23522036,25.99081095,5.22406014,-0.78259860,-0.26880148,0.43547913

>  <Name>
1c48cfe9-5785-48bf-8ad9-e7c94af8f072

>  <RI>
4.32755e+07

>  <Rbt.Current_Directory>
/data/work/jku/5V6S/work/40/8dba899c20c42488f2b1a17844994e

>  <Rbt.Executable>
rbdock ($Id: //depot/dev/client3/rdock/2013.1/src/exe/rbdock.cxx#4 $)

>  <Rbt.Library>
libRbt.so (2013.1, Build901 2013/11/27)

>  <Rbt.Parameter_File>
/rDock_2013.1_src/data/scripts/dock.prm

>  <Rbt.Receptor>
docking.prm

>  <SCORE>
-15.4562

>  <SCORE.INTER>
-11.051

>  <SCORE.INTER.CONST>
1

>  <SCORE.INTER.POLAR>
-0.27934

>  <SCORE.INTER.REPUL>
0

>  <SCORE.INTER.ROT>
1

>  <SCORE.INTER.VDW>
-16.5013

>  <SCORE.INTER.norm>
-0.690689

>  <SCORE.INTRA>
-2.89256

>  <SCORE.INTRA.DIHEDRAL>
-9.2343

>  <SCORE.INTRA.DIHEDRAL.0>
9.8014

>  <SCORE.INTRA.POLAR>
0

>  <SCORE.INTRA.POLAR.0>
0

>  <SCORE.INTRA.REPUL>
0

>  <SCORE.INTRA.REPUL.0>
0

>  <SCORE.INTRA.VDW>
1.72459

>  <SCORE.INTRA.VDW.0>
-0.624943

>  <SCORE.INTRA.norm>
-0.180785

>  <SCORE.RESTR>
0

>  <SCORE.RESTR.CAVITY>
0

>  <SCORE.RESTR.norm>
0

>  <SCORE.SYSTEM>
-1.51262

>  <SCORE.SYSTEM.CONST>
0

>  <SCORE.SYSTEM.DIHEDRAL>
0.433228

>  <SCORE.SYSTEM.POLAR>
-0.50316

>  <SCORE.SYSTEM.VDW>
-0.018494

>  <SCORE.SYSTEM.norm>
-0.094539

>  <SCORE.heavy>
16

>  <SCORE.norm>
-0.966013

>  <enum_code>
T

>  <enum_smi>
N=C1NNC(c2cccc([N+](=O)[O-])c2)=CS1

>  <sha256>
faad9480fd3d245006c7010a0e3f3f189aeed6552d5cd6bb949d5881145e517a

>  <std_smi>
NC1=NN=C(c2cccc([N+](=O)[O-])c2)CS1

>  <uuid>
1c48cfe9-5785-48bf-8ad9-e7c94af8f072

$$$$
1c48cfe9-5785-48bf-8ad9-e7c94af8f072
  rDOCK(R)          3D
libRbt.so/2013.1/901 2013/11/27
 19 20  0  0  0  0  0  0  0  0999 V2000
   -1.1596   24.6829    7.3737 N   0  0  0  0  0  0
   -1.0086   25.5150    6.3976 C   0  0  0  0  0  0
   -1.2943   26.8487    6.5296 N   0  0  0  0  0  0
   -1.5177   27.6788    5.4598 N   0  0  0  0  0  0
   -1.0647   27.4058    4.1798 C   0  0  0  0  0  0
   -1.1616   28.5002    3.1939 C   0  0  0  0  0  0
   -0.9182   28.2648    1.8316 C   0  0  0  0  0  0
   -1.0046   29.3034    0.9007 C   0  0  0  0  0  0
   -1.3321   30.5924    1.3202 C   0  0  0  0  0  0
   -1.5702   30.8347    2.6793 C   0  0  0  0  0  0
   -1.9096   32.1911    3.1260 N   0  3  0  0  0  0
   -2.0752   33.0591    2.2574 O   0  0  0  0  0  0
   -2.0053   32.3887    4.3454 O   0  5  0  0  0  0
   -1.4850   29.7968    3.6180 C   0  0  0  0  0  0
   -0.5702   26.2152    3.7962 C   0  0  0  0  0  0
   -0.4161   24.8661    4.8777 S   0  0  0  0  0  0
   -0.8786   23.7626    7.0149 H   0  0  0  0  0  0
   -1.8205   27.0297    7.3824 H   0  0  0  0  0  0
   -1.5283   28.6781    5.6744 H   0  0  0  0  0  0
  1  2  2  0  0  0
  2  3  1  0  0  0
  3  4  1  0  0  0
  4  5  1  0  0  0
  5  6  1  0  0  0
  6  7  2  0  0  0
  7  8  1  0  0  0
  8  9  2  0  0  0
  9 10  1  0  0  0
 10 11  1  0  0  0
 11 12  2  0  0  0
 11 13  1  0  0  0
 10 14  2  0  0  0
  5 15  2  0  0  0
 15 16  1  0  0  0
 16  2  1  0  0  0
 14  6  1  0  0  0
  1 17  1  0  0  0
  3 18  1  0  0  0
  4 19  1  0  0  0
M  END
>  <CHROM.0>
-59.88758699,69.52085695

>  <CHROM.1>
-170.39612467,-1.23645104,28.40269464,3.99631933,1.10546252,-1.29067802,2.21479632

>  <Name>
1c48cfe9-5785-48bf-8ad9-e7c94af8f072

>  <RI>
4.32755e+07

>  <Rbt.Current_Directory>
/data/work/jku/5V6S/work/40/8dba899c20c42488f2b1a17844994e

>  <Rbt.Executable>
rbdock ($Id: //depot/dev/client3/rdock/2013.1/src/exe/rbdock.cxx#4 $)

>  <Rbt.Library>
libRbt.so (2013.1, Build901 2013/11/27)

>  <Rbt.Parameter_File>
/rDock_2013.1_src/data/scripts/dock.prm

>  <Rbt.Receptor>
docking.prm

>  <SCORE>
-14.7333

>  <SCORE.INTER>
-10.3275

>  <SCORE.INTER.CONST>
1

>  <SCORE.INTER.POLAR>
0

>  <SCORE.INTER.REPUL>
0

>  <SCORE.INTER.ROT>
1

>  <SCORE.INTER.VDW>
-16.7275

>  <SCORE.INTER.norm>
-0.645468

>  <SCORE.INTRA>
-2.89393

>  <SCORE.INTRA.DIHEDRAL>
-9.44933

>  <SCORE.INTRA.DIHEDRAL.0>
9.8014

>  <SCORE.INTRA.POLAR>
0

>  <SCORE.INTRA.POLAR.0>
0

>  <SCORE.INTRA.REPUL>
0

>  <SCORE.INTRA.REPUL.0>
0

>  <SCORE.INTRA.VDW>
1.83073

>  <SCORE.INTRA.VDW.0>
-0.624943

>  <SCORE.INTRA.norm>
-0.180871

>  <SCORE.RESTR>
0

>  <SCORE.RESTR.CAVITY>
0

>  <SCORE.RESTR.norm>
0

>  <SCORE.SYSTEM>
-1.51191

>  <SCORE.SYSTEM.CONST>
0

>  <SCORE.SYSTEM.DIHEDRAL>
0.445767

>  <SCORE.SYSTEM.POLAR>
-0.503195

>  <SCORE.SYSTEM.VDW>
-0.0239343

>  <SCORE.SYSTEM.norm>
-0.0944946

>  <SCORE.heavy>
16

>  <SCORE.norm>
-0.920833

>  <enum_code>
T

>  <enum_smi>
N=C1NNC(c2cccc([N+](=O)[O-])c2)=CS1

>  <sha256>
faad9480fd3d245006c7010a0e3f3f189aeed6552d5cd6bb949d5881145e517a

>  <std_smi>
NC1=NN=C(c2cccc([N+](=O)[O-])c2)CS1

>  <uuid>
1c48cfe9-5785-48bf-8ad9-e7c94af8f072

$$$$
1c48cfe9-5785-48bf-8ad9-e7c94af8f072
  rDOCK(R)          3D
libRbt.so/2013.1/901 2013/11/27
 19 20  0  0  0  0  0  0  0  0999 V2000
   -1.3605   21.1205    4.2077 N   0  0  0  0  0  0
   -1.7867   22.3355    4.3096 C   0  0  0  0  0  0
   -0.9365   23.3869    4.5317 N   0  0  0  0  0  0
   -1.3531   24.6001    5.0194 N   0  0  0  0  0  0
   -2.6607   25.0470    4.9261 C   0  0  0  0  0  0
   -2.9041   26.4628    5.2659 C   0  0  0  0  0  0
   -1.8532   27.2920    5.6885 C   0  0  0  0  0  0
   -2.0867   28.6305    6.0154 C   0  0  0  0  0  0
   -3.3751   29.1569    5.9275 C   0  0  0  0  0  0
   -4.4290   28.3325    5.5121 C   0  0  0  0  0  0
   -5.7877   28.8809    5.4236 N   0  3  0  0  0  0
   -5.9330   30.0951    5.6238 O   0  0  0  0  0  0
   -6.7092   28.0962    5.1590 O   0  5  0  0  0  0
   -4.2009   26.9890    5.1828 C   0  0  0  0  0  0
   -3.6968   24.2680    4.5675 C   0  0  0  0  0  0
   -3.5161   22.5926    4.1506 S   0  0  0  0  0  0
   -2.1894   20.5364    4.0447 H   0  0  0  0  0  0
   -0.0129   23.0609    4.8103 H   0  0  0  0  0  0
   -0.6680   25.3562    4.9590 H   0  0  0  0  0  0
  1  2  2  0  0  0
  2  3  1  0  0  0
  3  4  1  0  0  0
  4  5  1  0  0  0
  5  6  1  0  0  0
  6  7  2  0  0  0
  7  8  1  0  0  0
  8  9  2  0  0  0
  9 10  1  0  0  0
 10 11  1  0  0  0
 11 12  2  0  0  0
 11 13  1  0  0  0
 10 14  2  0  0  0
  5 15  2  0  0  0
 15 16  1  0  0  0
 16  2  1  0  0  0
 14  6  1  0  0  0
  1 17  1  0  0  0
  3 18  1  0  0  0
  4 19  1  0  0  0
M  END
>  <CHROM.0>
-59.88758699,-62.20520502

>  <CHROM.1>
-1.31572469,-3.34238142,25.81841359,5.01615980,1.14628676,0.14551368,-2.88702444

>  <Name>
1c48cfe9-5785-48bf-8ad9-e7c94af8f072

>  <RI>
4.32755e+07

>  <Rbt.Current_Directory>
/data/work/jku/5V6S/work/40/8dba899c20c42488f2b1a17844994e

>  <Rbt.Executable>
rbdock ($Id: //depot/dev/client3/rdock/2013.1/src/exe/rbdock.cxx#4 $)

>  <Rbt.Library>
libRbt.so (2013.1, Build901 2013/11/27)

>  <Rbt.Parameter_File>
/rDock_2013.1_src/data/scripts/dock.prm

>  <Rbt.Receptor>
docking.prm

>  <SCORE>
-11.345

>  <SCORE.INTER>
-9.1994

>  <SCORE.INTER.CONST>
1

>  <SCORE.INTER.POLAR>
-0.337544

>  <SCORE.INTER.REPUL>
0

>  <SCORE.INTER.ROT>
1

>  <SCORE.INTER.VDW>
-14.4518

>  <SCORE.INTER.norm>
-0.574963

>  <SCORE.INTRA>
-3.16704

>  <SCORE.INTRA.DIHEDRAL>
-9.79256

>  <SCORE.INTRA.DIHEDRAL.0>
9.8014

>  <SCORE.INTRA.POLAR>
0

>  <SCORE.INTRA.POLAR.0>
0

>  <SCORE.INTRA.REPUL>
0

>  <SCORE.INTRA.REPUL.0>
0

>  <SCORE.INTRA.VDW>
1.72924

>  <SCORE.INTRA.VDW.0>
-0.624943

>  <SCORE.INTRA.norm>
-0.19794

>  <SCORE.RESTR>
0

>  <SCORE.RESTR.CAVITY>
0

>  <SCORE.RESTR.norm>
0

>  <SCORE.SYSTEM>
1.02145

>  <SCORE.SYSTEM.CONST>
0

>  <SCORE.SYSTEM.DIHEDRAL>
0.0316022

>  <SCORE.SYSTEM.REPUL>
0.138217

>  <SCORE.SYSTEM.VDW>
0.314563

>  <SCORE.SYSTEM.norm>
0.0638405

>  <SCORE.heavy>
16

>  <SCORE.norm>
-0.709062

>  <enum_code>
T

>  <enum_smi>
N=C1NNC(c2cccc([N+](=O)[O-])c2)=CS1

>  <sha256>
faad9480fd3d245006c7010a0e3f3f189aeed6552d5cd6bb949d5881145e517a

>  <std_smi>
NC1=NN=C(c2cccc([N+](=O)[O-])c2)CS1

>  <uuid>
1c48cfe9-5785-48bf-8ad9-e7c94af8f072

$$$$
d573fc8e-6c39-43da-b319-27886af9b930
  rDOCK(R)          3D
libRbt.so/2013.1/901 2013/11/27
 19 20  0  0  0  0  0  0  0  0999 V2000
    1.3327   32.9885   -0.8929 N   0  0  0  0  0  0
    0.6481   32.2487    0.0229 C   0  0  0  0  0  0
    0.5816   30.9543   -0.0935 N   0  0  0  0  0  0
   -0.0862   30.2272    0.8397 N   0  0  0  0  0  0
   -0.7982   30.7141    1.9124 C   0  0  0  0  0  0
   -1.5013   29.7237    2.7478 C   0  0  0  0  0  0
   -1.1090   28.3764    2.7414 C   0  0  0  0  0  0
   -1.7730   27.4370    3.5343 C   0  0  0  0  0  0
   -2.8367   27.8338    4.3445 C   0  0  0  0  0  0
   -3.2297   29.1789    4.3570 C   0  0  0  0  0  0
   -4.3479   29.6001    5.2097 N   0  3  0  0  0  0
   -4.6384   30.8044    5.2267 O   0  0  0  0  0  0
   -4.9350   28.7263    5.8636 O   0  5  0  0  0  0
   -2.5668   30.1263    3.5645 C   0  0  0  0  0  0
   -0.8690   32.0117    2.2428 C   0  0  0  0  0  0
   -0.0546   33.2142    1.3101 S   0  0  0  0  0  0
    1.2935   32.5822   -1.8195 H   0  0  0  0  0  0
    2.2606   33.2573   -0.5933 H   0  0  0  0  0  0
   -0.1887   29.2310    0.6508 H   0  0  0  0  0  0
  1  2  1  0  0  0
  2  3  2  0  0  0
  3  4  1  0  0  0
  4  5  1  0  0  0
  5  6  1  0  0  0
  6  7  2  0  0  0
  7  8  1  0  0  0
  8  9  2  0  0  0
  9 10  1  0  0  0
 10 11  1  0  0  0
 11 12  2  0  0  0
 11 13  1  0  0  0
 10 14  2  0  0  0
  5 15  2  0  0  0
 15 16  1  0  0  0
 16  2  1  0  0  0
 14  6  1  0  0  0
  1 17  1  0  0  0
  1 18  1  0  0  0
  4 19  1  0  0  0
M  END
>  <CHROM.0>
-59.88758699,68.63842545

>  <CHROM.1>
32.42640748,21.01730533,-1.54342702,30.51212625,2.58638414,0.55279735,0.77155155
-0.10348451

>  <Name>
d573fc8e-6c39-43da-b319-27886af9b930

>  <RI>
4.2739e+07

>  <Rbt.Current_Directory>
/data/work/jku/5V6S/work/40/8dba899c20c42488f2b1a17844994e

>  <Rbt.Executable>
rbdock ($Id: //depot/dev/client3/rdock/2013.1/src/exe/rbdock.cxx#4 $)

>  <Rbt.Library>
libRbt.so (2013.1, Build901 2013/11/27)

>  <Rbt.Parameter_File>
/rDock_2013.1_src/data/scripts/dock.prm

>  <Rbt.Receptor>
docking.prm

>  <SCORE>
-17.3696

>  <SCORE.INTER>
-15.3606

>  <SCORE.INTER.CONST>
1

>  <SCORE.INTER.POLAR>
-1.62576

>  <SCORE.INTER.REPUL>
0

>  <SCORE.INTER.ROT>
2

>  <SCORE.INTER.VDW>
-17.233

>  <SCORE.INTER.norm>
-0.960036

>  <SCORE.INTRA>
-0.495737

>  <SCORE.INTRA.DIHEDRAL>
-3.42948

>  <SCORE.INTRA.DIHEDRAL.0>
4.55548

>  <SCORE.INTRA.POLAR>
0

>  <SCORE.INTRA.POLAR.0>
0

>  <SCORE.INTRA.REPUL>
0

>  <SCORE.INTRA.REPUL.0>
0

>  <SCORE.INTRA.VDW>
1.219

>  <SCORE.INTRA.VDW.0>
-0.75459

>  <SCORE.INTRA.norm>
-0.0309835

>  <SCORE.RESTR>
0

>  <SCORE.RESTR.CAVITY>
0

>  <SCORE.RESTR.norm>
0

>  <SCORE.SYSTEM>
-1.51332

>  <SCORE.SYSTEM.CONST>
0

>  <SCORE.SYSTEM.DIHEDRAL>
0.369643

>  <SCORE.SYSTEM.POLAR>
-0.502712

>  <SCORE.SYSTEM.VDW>
0.0110793

>  <SCORE.SYSTEM.norm>
-0.0945825

>  <SCORE.heavy>
16

>  <SCORE.norm>
-1.0856

>  <enum_code>
T

>  <enum_smi>
NC1=NNC(c2cccc([N+](=O)[O-])c2)=CS1

>  <sha256>
faad9480fd3d245006c7010a0e3f3f189aeed6552d5cd6bb949d5881145e517a

>  <std_smi>
NC1=NN=C(c2cccc([N+](=O)[O-])c2)CS1

>  <uuid>
d573fc8e-6c39-43da-b319-27886af9b930

$$$$
d573fc8e-6c39-43da-b319-27886af9b930
  rDOCK(R)          3D
libRbt.so/2013.1/901 2013/11/27
 19 20  0  0  0  0  0  0  0  0999 V2000
    1.3597   32.9788   -0.8256 N   0  0  0  0  0  0
    0.6501   32.2232    0.0576 C   0  0  0  0  0  0
    0.5954   30.9300   -0.0775 N   0  0  0  0  0  0
   -0.0980   30.1870    0.8238 N   0  0  0  0  0  0
   -0.8477   30.6557    1.8788 C   0  0  0  0  0  0
   -1.5716   29.6504    2.6779 C   0  0  0  0  0  0
   -2.8498   29.9274    3.1863 C   0  0  0  0  0  0
   -3.5382   28.9749    3.9420 C   0  0  0  0  0  0
   -2.9571   27.7328    4.1971 C   0  0  0  0  0  0
   -1.6823   27.4502    3.6882 C   0  0  0  0  0  0
   -1.0685   26.1435    3.9537 N   0  3  0  0  0  0
    0.0407   25.9145    3.4514 O   0  0  0  0  0  0
   -1.6966   25.3453    4.6638 O   0  5  0  0  0  0
   -0.9871   28.4015    2.9286 C   0  0  0  0  0  0
   -0.9373   31.9484    2.2234 C   0  0  0  0  0  0
   -0.1002   33.1676    1.3335 S   0  0  0  0  0  0
    1.1653   33.9675   -0.7261 H   0  0  0  0  0  0
    1.3244   32.6397   -1.7779 H   0  0  0  0  0  0
   -0.1882   29.1928    0.6188 H   0  0  0  0  0  0
  1  2  1  0  0  0
  2  3  2  0  0  0
  3  4  1  0  0  0
  4  5  1  0  0  0
  5  6  1  0  0  0
  6  7  2  0  0  0
  7  8  1  0  0  0
  8  9  2  0  0  0
  9 10  1  0  0  0
 10 11  1  0  0  0
 11 12  2  0  0  0
 11 13  1  0  0  0
 10 14  2  0  0  0
  5 15  2  0  0  0
 15 16  1  0  0  0
 16  2  1  0  0  0
 14  6  1  0  0  0
  1 17  1  0  0  0
  1 18  1  0  0  0
  4 19  1  0  0  0
M  END
>  <CHROM.0>
-59.88758699,68.67274659

>  <CHROM.1>
168.03187287,-142.74767304,-0.86568250,29.70967198,2.28233941,-1.20990451
-0.62838149,2.81218362

>  <Name>
d573fc8e-6c39-43da-b319-27886af9b930

>  <RI>
4.2739e+07

>  <Rbt.Current_Directory>
/data/work/jku/5V6S/work/40/8dba899c20c42488f2b1a17844994e

>  <Rbt.Executable>
rbdock ($Id: //depot/dev/client3/rdock/2013.1/src/exe/rbdock.cxx#4 $)

>  <Rbt.Library>
libRbt.so (2013.1, Build901 2013/11/27)

>  <Rbt.Parameter_File>
/rDock_2013.1_src/data/scripts/dock.prm

>  <Rbt.Receptor>
docking.prm

>  <SCORE>
-18.0711

>  <SCORE.INTER>
-16.2914

>  <SCORE.INTER.CONST>
1

>  <SCORE.INTER.POLAR>
-1.58741

>  <SCORE.INTER.REPUL>
0

>  <SCORE.INTER.ROT>
2

>  <SCORE.INTER.VDW>
-18.2942

>  <SCORE.INTER.norm>
-1.01822

>  <SCORE.INTRA>
-0.26626

>  <SCORE.INTRA.DIHEDRAL>
-2.28371

>  <SCORE.INTRA.DIHEDRAL.0>
4.55548

>  <SCORE.INTRA.POLAR>
0

>  <SCORE.INTRA.POLAR.0>
0

>  <SCORE.INTRA.REPUL>
0

>  <SCORE.INTRA.REPUL.0>
0

>  <SCORE.INTRA.VDW>
0.875596

>  <SCORE.INTRA.VDW.0>
-0.75459

>  <SCORE.INTRA.norm>
-0.0166412

>  <SCORE.RESTR>
0

>  <SCORE.RESTR.CAVITY>
0

>  <SCORE.RESTR.norm>
0

>  <SCORE.SYSTEM>
-1.5134

>  <SCORE.SYSTEM.CONST>
0

>  <SCORE.SYSTEM.DIHEDRAL>
0.372475

>  <SCORE.SYSTEM.POLAR>
-0.502742

>  <SCORE.SYSTEM.VDW>
0.00968416

>  <SCORE.SYSTEM.norm>
-0.0945877

>  <SCORE.heavy>
16

>  <SCORE.norm>
-1.12944

>  <enum_code>
T

>  <enum_smi>
NC1=NNC(c2cccc([N+](=O)[O-])c2)=CS1

>  <sha256>
faad9480fd3d245006c7010a0e3f3f189aeed6552d5cd6bb949d5881145e517a

>  <std_smi>
NC1=NN=C(c2cccc([N+](=O)[O-])c2)CS1

>  <uuid>
d573fc8e-6c39-43da-b319-27886af9b930

$$$$
d573fc8e-6c39-43da-b319-27886af9b930
  rDOCK(R)          3D
libRbt.so/2013.1/901 2013/11/27
 19 20  0  0  0  0  0  0  0  0999 V2000
    1.3426   32.9949   -0.8765 N   0  0  0  0  0  0
    0.6449   32.2492    0.0245 C   0  0  0  0  0  0
    0.5596   30.9582   -0.1150 N   0  0  0  0  0  0
   -0.1210   30.2246    0.8037 N   0  0  0  0  0  0
   -0.8283   30.7028    1.8833 C   0  0  0  0  0  0
   -1.5480   29.7082    2.6995 C   0  0  0  0  0  0
   -2.8144   30.0000    3.2287 C   0  0  0  0  0  0
   -3.4987   29.0576    4.0005 C   0  0  0  0  0  0
   -2.9254   27.8111    4.2513 C   0  0  0  0  0  0
   -1.6624   27.5138    3.7217 C   0  0  0  0  0  0
   -1.0568   26.2023    3.9826 N   0  3  0  0  0  0
    0.0413   25.9603    3.4622 O   0  0  0  0  0  0
   -1.6801   25.4135    4.7072 O   0  5  0  0  0  0
   -0.9713   28.4548    2.9458 C   0  0  0  0  0  0
   -0.8808   31.9952    2.2366 C   0  0  0  0  0  0
   -0.0465   33.2019    1.3272 S   0  0  0  0  0  0
    1.2967   32.6078   -1.8110 H   0  0  0  0  0  0
    2.2749   33.2417   -0.5717 H   0  0  0  0  0  0
   -0.2378   29.2336    0.5968 H   0  0  0  0  0  0
  1  2  1  0  0  0
  2  3  2  0  0  0
  3  4  1  0  0  0
  4  5  1  0  0  0
  5  6  1  0  0  0
  6  7  2  0  0  0
  7  8  1  0  0  0
  8  9  2  0  0  0
  9 10  1  0  0  0
 10 11  1  0  0  0
 11 12  2  0  0  0
 11 13  1  0  0  0
 10 14  2  0  0  0
  5 15  2  0  0  0
 15 16  1  0  0  0
 16  2  1  0  0  0
 14  6  1  0  0  0
  1 17  1  0  0  0
  1 18  1  0  0  0
  4 19  1  0  0  0
M  END
>  <CHROM.0>
-59.88758699,-179.46693376

>  <CHROM.1>
32.64560365,-141.62702926,-0.84381740,29.75561844,2.29241957,-1.20070257
-0.64857549,2.81276395

>  <Name>
d573fc8e-6c39-43da-b319-27886af9b930

>  <RI>
4.2739e+07

>  <Rbt.Current_Directory>
/data/work/jku/5V6S/work/40/8dba899c20c42488f2b1a17844994e

>  <Rbt.Executable>
rbdock ($Id: //depot/dev/client3/rdock/2013.1/src/exe/rbdock.cxx#4 $)

>  <Rbt.Library>
libRbt.so (2013.1, Build901 2013/11/27)

>  <Rbt.Parameter_File>
/rDock_2013.1_src/data/scripts/dock.prm

>  <Rbt.Receptor>
docking.prm

>  <SCORE>
-16.4675

>  <SCORE.INTER>
-15.6057

>  <SCORE.INTER.CONST>
1

>  <SCORE.INTER.POLAR>
-1.62081

>  <SCORE.INTER.REPUL>
0

>  <SCORE.INTER.ROT>
2

>  <SCORE.INTER.VDW>
-17.4949

>  <SCORE.INTER.norm>
-0.975354

>  <SCORE.INTRA>
-0.590922

>  <SCORE.INTRA.DIHEDRAL>
-2.19052

>  <SCORE.INTRA.DIHEDRAL.0>
4.55548

>  <SCORE.INTRA.POLAR>
0

>  <SCORE.INTRA.POLAR.0>
0

>  <SCORE.INTRA.REPUL>
0

>  <SCORE.INTRA.REPUL.0>
0

>  <SCORE.INTRA.VDW>
0.50434

>  <SCORE.INTRA.VDW.0>
-0.75459

>  <SCORE.INTRA.norm>
-0.0369326

>  <SCORE.RESTR>
0

>  <SCORE.RESTR.CAVITY>
0

>  <SCORE.RESTR.norm>
0

>  <SCORE.SYSTEM>
-0.270961

>  <SCORE.SYSTEM.CONST>
0

>  <SCORE.SYSTEM.DIHEDRAL>
0.00903347

>  <SCORE.SYSTEM.VDW>
-0.275478

>  <SCORE.SYSTEM.norm>
-0.0169351

>  <SCORE.heavy>
16

>  <SCORE.norm>
-1.02922

>  <enum_code>
T

>  <enum_smi>
NC1=NNC(c2cccc([N+](=O)[O-])c2)=CS1

>  <sha256>
faad9480fd3d245006c7010a0e3f3f189aeed6552d5cd6bb949d5881145e517a

>  <std_smi>
NC1=NN=C(c2cccc([N+](=O)[O-])c2)CS1

>  <uuid>
d573fc8e-6c39-43da-b319-27886af9b930

$$$$
d573fc8e-6c39-43da-b319-27886af9b930
  rDOCK(R)          3D
libRbt.so/2013.1/901 2013/11/27
 19 20  0  0  0  0  0  0  0  0999 V2000
   -8.7299   27.7808    4.3625 N   0  0  0  0  0  0
   -7.5884   27.0417    4.4340 C   0  0  0  0  0  0
   -6.6929   27.2996    5.3423 N   0  0  0  0  0  0
   -5.5692   26.5399    5.4157 N   0  0  0  0  0  0
   -5.2030   25.5218    4.5648 C   0  0  0  0  0  0
   -3.8935   24.8904    4.8089 C   0  0  0  0  0  0
   -3.6579   23.5619    4.4233 C   0  0  0  0  0  0
   -2.4166   22.9627    4.6520 C   0  0  0  0  0  0
   -1.3950   23.6856    5.2678 C   0  0  0  0  0  0
   -1.6243   25.0139    5.6512 C   0  0  0  0  0  0
   -0.5508   25.7779    6.2982 N   0  3  0  0  0  0
   -0.7770   26.9622    6.5838 O   0  0  0  0  0  0
    0.5195   25.1938    6.5198 O   0  5  0  0  0  0
   -2.8673   25.6208    5.4236 C   0  0  0  0  0  0
   -5.9660   25.0698    3.5590 C   0  0  0  0  0  0
   -7.5141   25.7610    3.2352 S   0  0  0  0  0  0
   -9.5423   27.2610    4.6708 H   0  0  0  0  0  0
   -8.8522   28.2642    3.4825 H   0  0  0  0  0  0
   -4.8591   26.8430    6.0809 H   0  0  0  0  0  0
  1  2  1  0  0  0
  2  3  2  0  0  0
  3  4  1  0  0  0
  4  5  1  0  0  0
  5  6  1  0  0  0
  6  7  2  0  0  0
  7  8  1  0  0  0
  8  9  2  0  0  0
  9 10  1  0  0  0
 10 11  1  0  0  0
 11 12  2  0  0  0
 11 13  1  0  0  0
 10 14  2  0  0  0
  5 15  2  0  0  0
 15 16  1  0  0  0
 16  2  1  0  0  0
 14  6  1  0  0  0
  1 17  1  0  0  0
  1 18  1  0  0  0
  4 19  1  0  0  0
M  END
>  <CHROM.0>
-59.88758699,68.77523406

>  <CHROM.1>
-108.25408297,153.11916533,-4.24282315,25.61891057,4.93176341,-3.07937805
0.34128703,-2.66762825

>  <Name>
d573fc8e-6c39-43da-b319-27886af9b930

>  <RI>
4.2739e+07

>  <Rbt.Current_Directory>
/data/work/jku/5V6S/work/40/8dba899c20c42488f2b1a17844994e

>  <Rbt.Executable>
rbdock ($Id: //depot/dev/client3/rdock/2013.1/src/exe/rbdock.cxx#4 $)

>  <Rbt.Library>
libRbt.so (2013.1, Build901 2013/11/27)

>  <Rbt.Parameter_File>
/rDock_2013.1_src/data/scripts/dock.prm

>  <Rbt.Receptor>
docking.prm

>  <SCORE>
-14.6268

>  <SCORE.INTER>
-12.6954

>  <SCORE.INTER.CONST>
1

>  <SCORE.INTER.POLAR>
-0.356031

>  <SCORE.INTER.REPUL>
0

>  <SCORE.INTER.ROT>
2

>  <SCORE.INTER.VDW>
-18.8849

>  <SCORE.INTER.norm>
-0.793465

>  <SCORE.INTRA>
-0.454079

>  <SCORE.INTRA.DIHEDRAL>
-3.10854

>  <SCORE.INTRA.DIHEDRAL.0>
4.55548

>  <SCORE.INTRA.POLAR>
0

>  <SCORE.INTRA.POLAR.0>
0

>  <SCORE.INTRA.REPUL>
0

>  <SCORE.INTRA.REPUL.0>
0

>  <SCORE.INTRA.VDW>
1.10019

>  <SCORE.INTRA.VDW.0>
-0.75459

>  <SCORE.INTRA.norm>
-0.0283799

>  <SCORE.RESTR>
0.0363286

>  <SCORE.RESTR.CAVITY>
0.0363286

>  <SCORE.RESTR.norm>
0.00227054

>  <SCORE.SYSTEM>
-1.51358

>  <SCORE.SYSTEM.CONST>
0

>  <SCORE.SYSTEM.DIHEDRAL>
0.380996

>  <SCORE.SYSTEM.POLAR>
-0.502828

>  <SCORE.SYSTEM.VDW>
0.00553436

>  <SCORE.SYSTEM.norm>
-0.0945989

>  <SCORE.heavy>
16

>  <SCORE.norm>
-0.914173

>  <enum_code>
T

>  <enum_smi>
NC1=NNC(c2cccc([N+](=O)[O-])c2)=CS1

>  <sha256>
faad9480fd3d245006c7010a0e3f3f189aeed6552d5cd6bb949d5881145e517a

>  <std_smi>
NC1=NN=C(c2cccc([N+](=O)[O-])c2)CS1

>  <uuid>
d573fc8e-6c39-43da-b319-27886af9b930

$$$$
d573fc8e-6c39-43da-b319-27886af9b930
  rDOCK(R)          3D
libRbt.so/2013.1/901 2013/11/27
 19 20  0  0  0  0  0  0  0  0999 V2000
    1.0185   32.4644   -0.2963 N   0  0  0  0  0  0
    0.2720   32.0108    0.7485 C   0  0  0  0  0  0
   -0.0423   30.7510    0.8351 N   0  0  0  0  0  0
   -0.7687   30.3090    1.8945 N   0  0  0  0  0  0
   -1.3028   31.0735    2.9068 C   0  0  0  0  0  0
   -2.1196   30.3688    3.9115 C   0  0  0  0  0  0
   -2.1422   30.8028    5.2457 C   0  0  0  0  0  0
   -2.9176   30.1373    6.1987 C   0  0  0  0  0  0
   -3.6811   29.0303    5.8284 C   0  0  0  0  0  0
   -3.6646   28.5955    4.4963 C   0  0  0  0  0  0
   -4.4681   27.4316    4.1030 N   0  3  0  0  0  0
   -4.4616   27.1033    2.9084 O   0  0  0  0  0  0
   -5.1071   26.8464    4.9891 O   0  5  0  0  0  0
   -2.8894   29.2596    3.5355 C   0  0  0  0  0  0
   -1.1079   32.3938    3.0365 C   0  0  0  0  0  0
   -0.1491   33.2687    1.8987 S   0  0  0  0  0  0
    0.6136   33.2861   -0.7278 H   0  0  0  0  0  0
    1.2937   31.7424   -0.9489 H   0  0  0  0  0  0
   -1.0677   29.3351    1.8650 H   0  0  0  0  0  0
  1  2  1  0  0  0
  2  3  2  0  0  0
  3  4  1  0  0  0
  4  5  1  0  0  0
  5  6  1  0  0  0
  6  7  2  0  0  0
  7  8  1  0  0  0
  8  9  2  0  0  0
  9 10  1  0  0  0
 10 11  1  0  0  0
 11 12  2  0  0  0
 11 13  1  0  0  0
 10 14  2  0  0  0
  5 15  2  0  0  0
 15 16  1  0  0  0
 16  2  1  0  0  0
 14  6  1  0  0  0
  1 17  1  0  0  0
  1 18  1  0  0  0
  4 19  1  0  0  0
M  END
>  <CHROM.0>
-59.88758699,69.47829148

>  <CHROM.1>
131.21515347,147.48902894,-1.96573800,30.30275093,3.10814005,0.06902991,-0.91639656
-2.15205680

>  <Name>
d573fc8e-6c39-43da-b319-27886af9b930

>  <RI>
4.2739e+07

>  <Rbt.Current_Directory>
/data/work/jku/5V6S/work/40/8dba899c20c42488f2b1a17844994e

>  <Rbt.Executable>
rbdock ($Id: //depot/dev/client3/rdock/2013.1/src/exe/rbdock.cxx#4 $)

>  <Rbt.Library>
libRbt.so (2013.1, Build901 2013/11/27)

>  <Rbt.Parameter_File>
/rDock_2013.1_src/data/scripts/dock.prm

>  <Rbt.Receptor>
docking.prm

>  <SCORE>
-16.0556

>  <SCORE.INTER>
-14.1244

>  <SCORE.INTER.CONST>
1

>  <SCORE.INTER.POLAR>
-1.08972

>  <SCORE.INTER.REPUL>
0

>  <SCORE.INTER.ROT>
2

>  <SCORE.INTER.VDW>
-17.8194

>  <SCORE.INTER.norm>
-0.882776

>  <SCORE.INTRA>
-0.419048

>  <SCORE.INTRA.DIHEDRAL>
-2.70594

>  <SCORE.INTRA.DIHEDRAL.0>
4.55548

>  <SCORE.INTRA.POLAR>
0

>  <SCORE.INTRA.POLAR.0>
0

>  <SCORE.INTRA.REPUL>
0

>  <SCORE.INTRA.REPUL.0>
0

>  <SCORE.INTRA.VDW>
0.933923

>  <SCORE.INTRA.VDW.0>
-0.75459

>  <SCORE.INTRA.norm>
-0.0261905

>  <SCORE.RESTR>
0

>  <SCORE.RESTR.CAVITY>
0

>  <SCORE.RESTR.norm>
0

>  <SCORE.SYSTEM>
-1.51215

>  <SCORE.SYSTEM.CONST>
0

>  <SCORE.SYSTEM.DIHEDRAL>
0.441939

>  <SCORE.SYSTEM.POLAR>
-0.503186

>  <SCORE.SYSTEM.VDW>
-0.0222859

>  <SCORE.SYSTEM.norm>
-0.0945093

>  <SCORE.heavy>
16

>  <SCORE.norm>
-1.00348

>  <enum_code>
T

>  <enum_smi>
NC1=NNC(c2cccc([N+](=O)[O-])c2)=CS1

>  <sha256>
faad9480fd3d245006c7010a0e3f3f189aeed6552d5cd6bb949d5881145e517a

>  <std_smi>
NC1=NN=C(c2cccc([N+](=O)[O-])c2)CS1

>  <uuid>
d573fc8e-6c39-43da-b319-27886af9b930

$$$$
527d13bc-2178-44dc-9d06-d213ef2b6026
  rDOCK(R)          3D
libRbt.so/2013.1/901 2013/11/27
 17 18  0  0  0  0  0  0  0  0999 V2000
   -2.7241   24.6434    5.8030 C   0  0  0  0  0  0
   -2.4593   26.0348    5.3089 C   0  0  0  0  0  0
   -2.7803   26.3936    3.9947 C   0  0  0  0  0  0
   -2.5618   27.6973    3.5402 C   0  0  0  0  0  0
   -2.0318   28.6616    4.4041 C   0  0  0  0  0  0
   -1.8069   29.9927    3.9447 N   0  0  0  0  0  0
   -1.9611   31.1551    4.6965 C   0  0  0  0  0  0
   -2.4610   31.2014    6.1004 C   0  0  0  0  0  0
   -1.6733   32.2332    3.8834 C   0  0  0  0  0  0
   -1.3365   31.7505    2.5972 C   0  0  0  0  0  0
   -0.9558   32.5879    1.4223 C   0  0  0  0  0  0
    0.1915   33.3832    1.6987 O   0  0  0  0  0  0
   -1.4005   30.3632    2.6627 C   0  0  0  0  0  0
   -1.0359   29.3931    1.5859 C   0  0  0  0  0  0
   -1.7238   28.3125    5.7236 C   0  0  0  0  0  0
   -1.9407   27.0067    6.1721 C   0  0  0  0  0  0
    0.9111   32.7650    1.9026 H   0  0  0  0  0  0
  1  2  1  0  0  0
  2  3  2  0  0  0
  3  4  1  0  0  0
  4  5  2  0  0  0
  5  6  1  0  0  0
  6  7  1  0  0  0
  7  8  1  0  0  0
  7  9  2  0  0  0
  9 10  1  0  0  0
 10 11  1  0  0  0
 11 12  1  0  0  0
 10 13  2  0  0  0
 13 14  1  0  0  0
  5 15  1  0  0  0
 15 16  2  0  0  0
 16  2  1  0  0  0
 13  6  1  0  0  0
 12 17  1  0  0  0
M  END
>  <CHROM.0>
-59.88758699,-178.53434010

>  <CHROM.1>
144.71036879,58.89909365,60.65878988,-1.75421327,29.48110766,3.93357591,-2.54614950
1.28577372,0.50314538

>  <Name>
527d13bc-2178-44dc-9d06-d213ef2b6026

>  <RI>
1.05198e+07

>  <Rbt.Current_Directory>
/data/work/jku/5V6S/work/40/8dba899c20c42488f2b1a17844994e

>  <Rbt.Executable>
rbdock ($Id: //depot/dev/client3/rdock/2013.1/src/exe/rbdock.cxx#4 $)

>  <Rbt.Library>
libRbt.so (2013.1, Build901 2013/11/27)

>  <Rbt.Parameter_File>
/rDock_2013.1_src/data/scripts/dock.prm

>  <Rbt.Receptor>
docking.prm

>  <SCORE>
-10.7713

>  <SCORE.INTER>
-10.5074

>  <SCORE.INTER.CONST>
1

>  <SCORE.INTER.POLAR>
0

>  <SCORE.INTER.REPUL>
0

>  <SCORE.INTER.ROT>
2

>  <SCORE.INTER.VDW>
-17.9074

>  <SCORE.INTER.norm>
-0.656715

>  <SCORE.INTRA>
0.0019171

>  <SCORE.INTRA.DIHEDRAL>
-2.26971

>  <SCORE.INTRA.DIHEDRAL.0>
7.84796

>  <SCORE.INTRA.POLAR>
0

>  <SCORE.INTRA.POLAR.0>
0

>  <SCORE.INTRA.REPUL>
0

>  <SCORE.INTRA.REPUL.0>
0

>  <SCORE.INTRA.VDW>
1.13677

>  <SCORE.INTRA.VDW.0>
-0.499073

>  <SCORE.INTRA.norm>
0.000119818

>  <SCORE.RESTR>
0.000429541

>  <SCORE.RESTR.CAVITY>
0.000429541

>  <SCORE.RESTR.norm>
2.68463e-05

>  <SCORE.SYSTEM>
-0.266201

>  <SCORE.SYSTEM.CONST>
0

>  <SCORE.SYSTEM.DIHEDRAL>
0.0182268

>  <SCORE.SYSTEM.VDW>
-0.275315

>  <SCORE.SYSTEM.norm>
-0.0166376

>  <SCORE.heavy>
16

>  <SCORE.norm>
-0.673206

>  <enum_code>
B

>  <enum_smi>
Cc1ccc(-n2c(C)cc(CO)c2C)cc1

>  <sha256>
63d37b5daf469ce317808cefff4d5c8c6b0a584e91ee78ccac3fe1a1dcfd50d4

>  <std_smi>
Cc1ccc(-n2c(C)cc(CO)c2C)cc1

>  <uuid>
527d13bc-2178-44dc-9d06-d213ef2b6026

$$$$
527d13bc-2178-44dc-9d06-d213ef2b6026
  rDOCK(R)          3D
libRbt.so/2013.1/901 2013/11/27
 17 18  0  0  0  0  0  0  0  0999 V2000
   -5.4026   29.5356    6.2635 C   0  0  0  0  0  0
   -4.4017   29.8671    5.1966 C   0  0  0  0  0  0
   -3.4283   30.8482    5.4175 C   0  0  0  0  0  0
   -2.4761   31.1386    4.4363 C   0  0  0  0  0  0
   -2.4798   30.4370    3.2260 C   0  0  0  0  0  0
   -1.5105   30.7302    2.2221 N   0  0  0  0  0  0
   -0.8482   29.7980    1.4267 C   0  0  0  0  0  0
   -0.9947   28.3191    1.5464 C   0  0  0  0  0  0
    0.0247   30.4803    0.6027 C   0  0  0  0  0  0
   -0.0806   31.8631    0.8809 C   0  0  0  0  0  0
    0.6891   32.9502    0.2082 C   0  0  0  0  0  0
    1.7897   32.4303   -0.5290 O   0  0  0  0  0  0
   -1.0521   31.9987    1.8661 C   0  0  0  0  0  0
   -1.5938   33.2736    2.4271 C   0  0  0  0  0  0
   -3.4409   29.4442    3.0059 C   0  0  0  0  0  0
   -4.3930   29.1601    3.9887 C   0  0  0  0  0  0
    1.4123   31.8845   -1.2370 H   0  0  0  0  0  0
  1  2  1  0  0  0
  2  3  2  0  0  0
  3  4  1  0  0  0
  4  5  2  0  0  0
  5  6  1  0  0  0
  6  7  1  0  0  0
  7  8  1  0  0  0
  7  9  2  0  0  0
  9 10  1  0  0  0
 10 11  1  0  0  0
 11 12  1  0  0  0
 10 13  2  0  0  0
 13 14  1  0  0  0
  5 15  1  0  0  0
 15 16  2  0  0  0
 16  2  1  0  0  0
 13  6  1  0  0  0
 12 17  1  0  0  0
M  END
>  <CHROM.0>
-59.88758699,-179.38045097

>  <CHROM.1>
139.59278111,-14.35880768,64.44668731,-1.79548919,30.79386864,2.58590820
3.03218393,-0.81236891,-2.86610107

>  <Name>
527d13bc-2178-44dc-9d06-d213ef2b6026

>  <RI>
1.05198e+07

>  <Rbt.Current_Directory>
/data/work/jku/5V6S/work/40/8dba899c20c42488f2b1a17844994e

>  <Rbt.Executable>
rbdock ($Id: //depot/dev/client3/rdock/2013.1/src/exe/rbdock.cxx#4 $)

>  <Rbt.Library>
libRbt.so (2013.1, Build901 2013/11/27)

>  <Rbt.Parameter_File>
/rDock_2013.1_src/data/scripts/dock.prm

>  <Rbt.Receptor>
docking.prm

>  <SCORE>
-12.6968

>  <SCORE.INTER>
-12.7667

>  <SCORE.INTER.CONST>
1

>  <SCORE.INTER.POLAR>
-1.08972

>  <SCORE.INTER.REPUL>
0

>  <SCORE.INTER.ROT>
2

>  <SCORE.INTER.VDW>
-16.4617

>  <SCORE.INTER.norm>
-0.79792

>  <SCORE.INTRA>
0.340626

>  <SCORE.INTRA.DIHEDRAL>
-1.03089

>  <SCORE.INTRA.DIHEDRAL.0>
7.84796

>  <SCORE.INTRA.POLAR>
0

>  <SCORE.INTRA.POLAR.0>
0

>  <SCORE.INTRA.REPUL>
0

>  <SCORE.INTRA.REPUL.0>
0

>  <SCORE.INTRA.VDW>
0.856072

>  <SCORE.INTRA.VDW.0>
-0.499073

>  <SCORE.INTRA.norm>
0.0212891

>  <SCORE.RESTR>
0

>  <SCORE.RESTR.CAVITY>
0

>  <SCORE.RESTR.norm>
0

>  <SCORE.SYSTEM>
-0.270697

>  <SCORE.SYSTEM.CONST>
0

>  <SCORE.SYSTEM.DIHEDRAL>
0.0095253

>  <SCORE.SYSTEM.VDW>
-0.27546

>  <SCORE.SYSTEM.norm>
-0.0169186

>  <SCORE.heavy>
16

>  <SCORE.norm>
-0.793549

>  <enum_code>
B

>  <enum_smi>
Cc1ccc(-n2c(C)cc(CO)c2C)cc1

>  <sha256>
63d37b5daf469ce317808cefff4d5c8c6b0a584e91ee78ccac3fe1a1dcfd50d4

>  <std_smi>
Cc1ccc(-n2c(C)cc(CO)c2C)cc1

>  <uuid>
527d13bc-2178-44dc-9d06-d213ef2b6026

$$$$
527d13bc-2178-44dc-9d06-d213ef2b6026
  rDOCK(R)          3D
libRbt.so/2013.1/901 2013/11/27
 17 18  0  0  0  0  0  0  0  0999 V2000
   -4.9100   26.3128    5.5454 C   0  0  0  0  0  0
   -4.0681   27.2528    4.7343 C   0  0  0  0  0  0
   -3.1968   28.1483    5.3651 C   0  0  0  0  0  0
   -2.3896   29.0049    4.6112 C   0  0  0  0  0  0
   -2.4361   28.9632    3.2137 C   0  0  0  0  0  0
   -1.6146   29.8355    2.4406 N   0  0  0  0  0  0
   -0.8712   29.4787    1.3180 C   0  0  0  0  0  0
   -0.7561   28.0938    0.7776 C   0  0  0  0  0  0
   -0.1955   30.5991    0.8770 C   0  0  0  0  0  0
   -0.5096   31.6807    1.7327 C   0  0  0  0  0  0
    0.0088   33.0742    1.6050 C   0  0  0  0  0  0
    0.6707   33.2721    0.3608 O   0  0  0  0  0  0
   -1.4070   31.1946    2.6767 C   0  0  0  0  0  0
   -2.1087   31.9775    3.7389 C   0  0  0  0  0  0
   -3.2937   28.0589    2.5776 C   0  0  0  0  0  0
   -4.1015   27.2070    3.3359 C   0  0  0  0  0  0
    0.0139   33.0935   -0.3308 H   0  0  0  0  0  0
  1  2  1  0  0  0
  2  3  2  0  0  0
  3  4  1  0  0  0
  4  5  2  0  0  0
  5  6  1  0  0  0
  6  7  1  0  0  0
  7  8  1  0  0  0
  7  9  2  0  0  0
  9 10  1  0  0  0
 10 11  1  0  0  0
 11 12  1  0  0  0
 10 13  2  0  0  0
 13 14  1  0  0  0
  5 15  1  0  0  0
 15 16  2  0  0  0
 16  2  1  0  0  0
 13  6  1  0  0  0
 12 17  1  0  0  0
M  END
>  <CHROM.0>
-59.88758699,69.03007179

>  <CHROM.1>
135.54772069,11.22617869,59.75614085,-1.91270890,29.69276639,2.76809140,2.79015700
-0.95173122,-2.60610529

>  <Name>
527d13bc-2178-44dc-9d06-d213ef2b6026

>  <RI>
1.05198e+07

>  <Rbt.Current_Directory>
/data/work/jku/5V6S/work/40/8dba899c20c42488f2b1a17844994e

>  <Rbt.Executable>
rbdock ($Id: //depot/dev/client3/rdock/2013.1/src/exe/rbdock.cxx#4 $)

>  <Rbt.Library>
libRbt.so (2013.1, Build901 2013/11/27)

>  <Rbt.Parameter_File>
/rDock_2013.1_src/data/scripts/dock.prm

>  <Rbt.Receptor>
docking.prm

>  <SCORE>
-10.7733

>  <SCORE.INTER>
-9.5508

>  <SCORE.INTER.CONST>
1

>  <SCORE.INTER.POLAR>
0

>  <SCORE.INTER.REPUL>
0

>  <SCORE.INTER.ROT>
2

>  <SCORE.INTER.VDW>
-16.9508

>  <SCORE.INTER.norm>
-0.596925

>  <SCORE.INTRA>
0.291128

>  <SCORE.INTRA.DIHEDRAL>
-0.302522

>  <SCORE.INTRA.DIHEDRAL.0>
7.84796

>  <SCORE.INTRA.POLAR>
0

>  <SCORE.INTRA.POLAR.0>
0

>  <SCORE.INTRA.REPUL>
0

>  <SCORE.INTRA.REPUL.0>
0

>  <SCORE.INTRA.VDW>
0.442389

>  <SCORE.INTRA.VDW.0>
-0.499073

>  <SCORE.INTRA.norm>
0.0181955

>  <SCORE.RESTR>
0

>  <SCORE.RESTR.CAVITY>
0

>  <SCORE.RESTR.norm>
0

>  <SCORE.SYSTEM>
-1.5136

>  <SCORE.SYSTEM.CONST>
0

>  <SCORE.SYSTEM.DIHEDRAL>
0.402585

>  <SCORE.SYSTEM.POLAR>
-0.503004

>  <SCORE.SYSTEM.VDW>
-0.00467958

>  <SCORE.SYSTEM.norm>
-0.0946

>  <SCORE.heavy>
16

>  <SCORE.norm>
-0.67333

>  <enum_code>
B

>  <enum_smi>
Cc1ccc(-n2c(C)cc(CO)c2C)cc1

>  <sha256>
63d37b5daf469ce317808cefff4d5c8c6b0a584e91ee78ccac3fe1a1dcfd50d4

>  <std_smi>
Cc1ccc(-n2c(C)cc(CO)c2C)cc1

>  <uuid>
527d13bc-2178-44dc-9d06-d213ef2b6026

$$$$
527d13bc-2178-44dc-9d06-d213ef2b6026
  rDOCK(R)          3D
libRbt.so/2013.1/901 2013/11/27
 17 18  0  0  0  0  0  0  0  0999 V2000
   -1.3826   24.9654    6.6098 C   0  0  0  0  0  0
   -1.4252   26.2064    5.7683 C   0  0  0  0  0  0
   -1.2784   26.1263    4.3787 C   0  0  0  0  0  0
   -1.3470   27.2776    3.5891 C   0  0  0  0  0  0
   -1.5788   28.5227    4.1832 C   0  0  0  0  0  0
   -1.6493   29.6999    3.3815 N   0  0  0  0  0  0
   -1.3591   29.7827    2.0216 C   0  0  0  0  0  0
   -0.8527   28.6546    1.1885 C   0  0  0  0  0  0
   -1.5225   31.0958    1.6273 C   0  0  0  0  0  0
   -1.9170   31.8582    2.7514 C   0  0  0  0  0  0
   -2.2018   33.3230    2.7567 C   0  0  0  0  0  0
   -1.3981   34.0069    3.7115 O   0  0  0  0  0  0
   -2.0141   30.9732    3.8192 C   0  0  0  0  0  0
   -2.4921   31.2792    5.2017 C   0  0  0  0  0  0
   -1.7422   28.6067    5.5703 C   0  0  0  0  0  0
   -1.6690   27.4531    6.3558 C   0  0  0  0  0  0
   -1.5609   34.9542    3.5789 H   0  0  0  0  0  0
  1  2  1  0  0  0
  2  3  2  0  0  0
  3  4  1  0  0  0
  4  5  2  0  0  0
  5  6  1  0  0  0
  6  7  1  0  0  0
  7  8  1  0  0  0
  7  9  2  0  0  0
  9 10  1  0  0  0
 10 11  1  0  0  0
 11 12  1  0  0  0
 10 13  2  0  0  0
 13 14  1  0  0  0
  5 15  1  0  0  0
 15 16  2  0  0  0
 16  2  1  0  0  0
 13  6  1  0  0  0
 12 17  1  0  0  0
M  END
>  <CHROM.0>
-59.88758699,68.71098926

>  <CHROM.1>
-7.68698272,-123.85534001,173.24529151,-1.61190817,29.44265844,3.93591826
1.31013160,-1.36816809,2.49817176

>  <Name>
527d13bc-2178-44dc-9d06-d213ef2b6026

>  <RI>
1.05198e+07

>  <Rbt.Current_Directory>
/data/work/jku/5V6S/work/40/8dba899c20c42488f2b1a17844994e

>  <Rbt.Executable>
rbdock ($Id: //depot/dev/client3/rdock/2013.1/src/exe/rbdock.cxx#4 $)

>  <Rbt.Library>
libRbt.so (2013.1, Build901 2013/11/27)

>  <Rbt.Parameter_File>
/rDock_2013.1_src/data/scripts/dock.prm

>  <Rbt.Receptor>
docking.prm

>  <SCORE>
-14.4319

>  <SCORE.INTER>
-14.9393

>  <SCORE.INTER.CONST>
1

>  <SCORE.INTER.POLAR>
-1.33609

>  <SCORE.INTER.REPUL>
0

>  <SCORE.INTER.ROT>
2

>  <SCORE.INTER.VDW>
-17.7966

>  <SCORE.INTER.norm>
-0.933709

>  <SCORE.INTRA>
2.0209

>  <SCORE.INTRA.DIHEDRAL>
-6.05358

>  <SCORE.INTRA.DIHEDRAL.0>
7.84796

>  <SCORE.INTRA.POLAR>
0

>  <SCORE.INTRA.POLAR.0>
0

>  <SCORE.INTRA.REPUL>
0

>  <SCORE.INTRA.REPUL.0>
0

>  <SCORE.INTRA.VDW>
5.04769

>  <SCORE.INTRA.VDW.0>
-0.499073

>  <SCORE.INTRA.norm>
0.126306

>  <SCORE.RESTR>
0

>  <SCORE.RESTR.CAVITY>
0

>  <SCORE.RESTR.norm>
0

>  <SCORE.SYSTEM>
-1.51348

>  <SCORE.SYSTEM.CONST>
0

>  <SCORE.SYSTEM.DIHEDRAL>
0.375644

>  <SCORE.SYSTEM.POLAR>
-0.502775

>  <SCORE.SYSTEM.VDW>
0.00813284

>  <SCORE.SYSTEM.norm>
-0.0945926

>  <SCORE.heavy>
16

>  <SCORE.norm>
-0.901995

>  <enum_code>
B

>  <enum_smi>
Cc1ccc(-n2c(C)cc(CO)c2C)cc1

>  <sha256>
63d37b5daf469ce317808cefff4d5c8c6b0a584e91ee78ccac3fe1a1dcfd50d4

>  <std_smi>
Cc1ccc(-n2c(C)cc(CO)c2C)cc1

>  <uuid>
527d13bc-2178-44dc-9d06-d213ef2b6026

$$$$
527d13bc-2178-44dc-9d06-d213ef2b6026
  rDOCK(R)          3D
libRbt.so/2013.1/901 2013/11/27
 17 18  0  0  0  0  0  0  0  0999 V2000
   -2.8260   24.3136    5.7100 C   0  0  0  0  0  0
   -2.5353   25.6564    5.1078 C   0  0  0  0  0  0
   -3.3347   26.7619    5.4206 C   0  0  0  0  0  0
   -3.0486   28.0205    4.8840 C   0  0  0  0  0  0
   -1.9472   28.1884    4.0380 C   0  0  0  0  0  0
   -1.6519   29.4705    3.4882 N   0  0  0  0  0  0
   -1.2541   29.7275    2.1782 C   0  0  0  0  0  0
   -1.0005   28.6831    1.1447 C   0  0  0  0  0  0
   -1.0419   31.0860    2.0529 C   0  0  0  0  0  0
   -1.3036   31.6999    3.3000 C   0  0  0  0  0  0
   -1.1972   33.1589    3.5944 C   0  0  0  0  0  0
   -2.0259   33.9271    2.7293 O   0  0  0  0  0  0
   -1.7032   30.6886    4.1662 C   0  0  0  0  0  0
   -2.1824   30.8450    5.5731 C   0  0  0  0  0  0
   -1.1354   27.0900    3.7346 C   0  0  0  0  0  0
   -1.4277   25.8329    4.2707 C   0  0  0  0  0  0
   -1.8760   34.8575    2.9606 H   0  0  0  0  0  0
  1  2  1  0  0  0
  2  3  2  0  0  0
  3  4  1  0  0  0
  4  5  2  0  0  0
  5  6  1  0  0  0
  6  7  1  0  0  0
  7  8  1  0  0  0
  7  9  2  0  0  0
  9 10  1  0  0  0
 10 11  1  0  0  0
 11 12  1  0  0  0
 10 13  2  0  0  0
 13 14  1  0  0  0
  5 15  1  0  0  0
 15 16  2  0  0  0
 16  2  1  0  0  0
 13  6  1  0  0  0
 12 17  1  0  0  0
M  END
>  <CHROM.0>
-59.88758699,69.34598227

>  <CHROM.1>
-138.01716044,57.23909189,-177.93928760,-1.85620634,29.15276071,3.82530104
1.88485205,-1.13287182,-3.13846593

>  <Name>
527d13bc-2178-44dc-9d06-d213ef2b6026

>  <RI>
1.05198e+07

>  <Rbt.Current_Directory>
/data/work/jku/5V6S/work/40/8dba899c20c42488f2b1a17844994e

>  <Rbt.Executable>
rbdock ($Id: //depot/dev/client3/rdock/2013.1/src/exe/rbdock.cxx#4 $)

>  <Rbt.Library>
libRbt.so (2013.1, Build901 2013/11/27)

>  <Rbt.Parameter_File>
/rDock_2013.1_src/data/scripts/dock.prm

>  <Rbt.Receptor>
docking.prm

>  <SCORE>
-16.4241

>  <SCORE.INTER>
-15.2983

>  <SCORE.INTER.CONST>
1

>  <SCORE.INTER.POLAR>
-1.51567

>  <SCORE.INTER.REPUL>
0

>  <SCORE.INTER.ROT>
2

>  <SCORE.INTER.VDW>
-17.545

>  <SCORE.INTER.norm>
-0.956145

>  <SCORE.INTRA>
0.386953

>  <SCORE.INTRA.DIHEDRAL>
-0.720449

>  <SCORE.INTRA.DIHEDRAL.0>
7.84796

>  <SCORE.INTRA.POLAR>
0

>  <SCORE.INTRA.POLAR.0>
0

>  <SCORE.INTRA.REPUL>
0

>  <SCORE.INTRA.REPUL.0>
0

>  <SCORE.INTRA.VDW>
0.747177

>  <SCORE.INTRA.VDW.0>
-0.499073

>  <SCORE.INTRA.norm>
0.0241846

>  <SCORE.RESTR>
0

>  <SCORE.RESTR.CAVITY>
0

>  <SCORE.RESTR.norm>
0

>  <SCORE.SYSTEM>
-1.51277

>  <SCORE.SYSTEM.CONST>
0

>  <SCORE.SYSTEM.DIHEDRAL>
0.43014

>  <SCORE.SYSTEM.POLAR>
-0.503149

>  <SCORE.SYSTEM.VDW>
-0.0171359

>  <SCORE.SYSTEM.norm>
-0.0945483

>  <SCORE.heavy>
16

>  <SCORE.norm>
-1.02651

>  <enum_code>
B

>  <enum_smi>
Cc1ccc(-n2c(C)cc(CO)c2C)cc1

>  <sha256>
63d37b5daf469ce317808cefff4d5c8c6b0a584e91ee78ccac3fe1a1dcfd50d4

>  <std_smi>
Cc1ccc(-n2c(C)cc(CO)c2C)cc1

>  <uuid>
527d13bc-2178-44dc-9d06-d213ef2b6026

$$$$
b3b77060-5963-4043-aafc-f21cbd7ca723
  rDOCK(R)          3D
libRbt.so/2013.1/901 2013/11/27
 17 18  0  0  0  0  0  0  0  0999 V2000
   -2.2420   30.9036    6.0238 C   0  0  0  0  0  0
   -2.1487   30.5374    4.5504 C   0  0  0  0  0  0
   -1.9048   31.7424    3.6355 C   0  0  0  0  0  0
   -1.8961   31.3723    2.1443 C   0  0  0  0  0  0
   -0.8055   30.4599    1.7317 N   0  0  0  0  0  0
    0.0139   31.1370    0.7175 C   0  0  0  0  0  0
   -1.3149   29.1847    1.1744 C   0  0  0  0  0  0
   -2.0727   28.3855    2.1879 C   0  0  0  0  0  0
   -3.3796   28.3418    2.3606 N   0  0  0  0  0  0
   -3.5821   27.4862    3.4171 C   0  0  0  0  0  0
   -4.7774   27.0890    4.0343 C   0  0  0  0  0  0
   -4.7128   26.2015    5.1162 C   0  0  0  0  0  0
   -3.4834   25.7175    5.5718 C   0  0  0  0  0  0
   -2.2801   26.1024    4.9679 C   0  0  0  0  0  0
   -2.3745   26.9869    3.8929 C   0  0  0  0  0  0
   -1.4324   27.5685    3.0884 N   0  0  0  0  0  0
   -0.4289   27.4827    3.1598 H   0  0  0  0  0  0
  1  2  1  0  0  0
  2  3  1  0  0  0
  3  4  1  0  0  0
  4  5  1  0  0  0
  5  6  1  0  0  0
  5  7  1  0  0  0
  7  8  1  0  0  0
  8  9  2  0  0  0
  9 10  1  0  0  0
 10 11  2  0  0  0
 11 12  1  0  0  0
 12 13  2  0  0  0
 13 14  1  0  0  0
 14 15  2  0  0  0
 15 16  1  0  0  0
 16  8  1  0  0  0
 15 10  1  0  0  0
 16 17  1  0  0  0
M  END
>  <CHROM.0>
-59.88758699,68.52392581

>  <CHROM.1>
-176.56456487,-63.94079597,-119.82673998,-63.82446088,96.99463953,-2.34470652
28.79193528,3.39101812,0.36353160,1.08156415,0.62394196

>  <Name>
b3b77060-5963-4043-aafc-f21cbd7ca723

>  <RI>
3.11309e+07

>  <Rbt.Current_Directory>
/data/work/jku/5V6S/work/40/8dba899c20c42488f2b1a17844994e

>  <Rbt.Executable>
rbdock ($Id: //depot/dev/client3/rdock/2013.1/src/exe/rbdock.cxx#4 $)

>  <Rbt.Library>
libRbt.so (2013.1, Build901 2013/11/27)

>  <Rbt.Parameter_File>
/rDock_2013.1_src/data/scripts/dock.prm

>  <Rbt.Receptor>
docking.prm

>  <SCORE>
-9.55919

>  <SCORE.INTER>
-6.50707

>  <SCORE.INTER.CONST>
1

>  <SCORE.INTER.POLAR>
0

>  <SCORE.INTER.REPUL>
0

>  <SCORE.INTER.ROT>
5

>  <SCORE.INTER.VDW>
-16.9071

>  <SCORE.INTER.norm>
-0.406692

>  <SCORE.INTRA>
-1.53915

>  <SCORE.INTRA.DIHEDRAL>
0.585462

>  <SCORE.INTRA.DIHEDRAL.0>
3.2891

>  <SCORE.INTRA.POLAR>
0

>  <SCORE.INTRA.POLAR.0>
0

>  <SCORE.INTRA.REPUL>
0

>  <SCORE.INTRA.REPUL.0>
0

>  <SCORE.INTRA.VDW>
-1.83188

>  <SCORE.INTRA.VDW.0>
-0.439351

>  <SCORE.INTRA.norm>
-0.096197

>  <SCORE.RESTR>
0

>  <SCORE.RESTR.CAVITY>
0

>  <SCORE.RESTR.norm>
0

>  <SCORE.SYSTEM>
-1.51296

>  <SCORE.SYSTEM.CONST>
0

>  <SCORE.SYSTEM.DIHEDRAL>
0.360268

>  <SCORE.SYSTEM.POLAR>
-0.502603

>  <SCORE.SYSTEM.VDW>
0.0157533

>  <SCORE.SYSTEM.norm>
-0.0945601

>  <SCORE.heavy>
16

>  <SCORE.norm>
-0.597449

>  <enum_code>
B

>  <enum_smi>
CCCCN(C)Cc1nc2ccccc2[nH]1

>  <sha256>
6a33d1ae81811c4c560d91d11e3d923a6f2cbbca3c5192f5a65c4f1c1941a1a4

>  <std_smi>
CCCCN(C)Cc1nc2ccccc2[nH]1

>  <uuid>
b3b77060-5963-4043-aafc-f21cbd7ca723

$$$$
b3b77060-5963-4043-aafc-f21cbd7ca723
  rDOCK(R)          3D
libRbt.so/2013.1/901 2013/11/27
 17 18  0  0  0  0  0  0  0  0999 V2000
   -3.9861   25.1723    4.9960 C   0  0  0  0  0  0
   -4.5696   26.5756    5.0584 C   0  0  0  0  0  0
   -4.1787   27.4536    3.8648 C   0  0  0  0  0  0
   -4.7815   28.8651    3.9345 C   0  0  0  0  0  0
   -4.3141   29.6905    5.0713 N   0  0  0  0  0  0
   -5.2965   29.5900    6.1590 C   0  0  0  0  0  0
   -4.1398   31.1153    4.7023 C   0  0  0  0  0  0
   -3.0327   31.3141    3.7150 C   0  0  0  0  0  0
   -2.6223   30.4688    2.7894 N   0  0  0  0  0  0
   -1.5778   31.0978    2.1546 C   0  0  0  0  0  0
   -0.7644   30.6487    1.1040 C   0  0  0  0  0  0
    0.2543   31.4887    0.6360 C   0  0  0  0  0  0
    0.4564   32.7510    1.2010 C   0  0  0  0  0  0
   -0.3459   33.2164    2.2499 C   0  0  0  0  0  0
   -1.3524   32.3589    2.6957 C   0  0  0  0  0  0
   -2.2963   32.4738    3.6800 N   0  0  0  0  0  0
   -2.4154   33.2389    4.3280 H   0  0  0  0  0  0
  1  2  1  0  0  0
  2  3  1  0  0  0
  3  4  1  0  0  0
  4  5  1  0  0  0
  5  6  1  0  0  0
  5  7  1  0  0  0
  7  8  1  0  0  0
  8  9  2  0  0  0
  9 10  1  0  0  0
 10 11  2  0  0  0
 11 12  1  0  0  0
 12 13  2  0  0  0
 13 14  1  0  0  0
 14 15  2  0  0  0
 15 16  1  0  0  0
 16  8  1  0  0  0
 15 10  1  0  0  0
 16 17  1  0  0  0
M  END
>  <CHROM.0>
-59.88758699,67.23262706

>  <CHROM.1>
179.61845188,64.15834626,-96.55359701,-66.31458434,30.18732686,-2.74251322
30.18494222,3.45349855,-2.48856119,0.76191973,0.13708554

>  <Name>
b3b77060-5963-4043-aafc-f21cbd7ca723

>  <RI>
3.11309e+07

>  <Rbt.Current_Directory>
/data/work/jku/5V6S/work/40/8dba899c20c42488f2b1a17844994e

>  <Rbt.Executable>
rbdock ($Id: //depot/dev/client3/rdock/2013.1/src/exe/rbdock.cxx#4 $)

>  <Rbt.Library>
libRbt.so (2013.1, Build901 2013/11/27)

>  <Rbt.Parameter_File>
/rDock_2013.1_src/data/scripts/dock.prm

>  <Rbt.Receptor>
docking.prm

>  <SCORE>
-10.1219

>  <SCORE.INTER>
-8.59924

>  <SCORE.INTER.CONST>
1

>  <SCORE.INTER.POLAR>
-0.894427

>  <SCORE.INTER.REPUL>
0

>  <SCORE.INTER.ROT>
5

>  <SCORE.INTER.VDW>
-15.9582

>  <SCORE.INTER.norm>
-0.537453

>  <SCORE.INTRA>
-0.0224894

>  <SCORE.INTRA.DIHEDRAL>
-0.186698

>  <SCORE.INTRA.DIHEDRAL.0>
3.2891

>  <SCORE.INTRA.POLAR>
0

>  <SCORE.INTRA.POLAR.0>
0

>  <SCORE.INTRA.REPUL>
0

>  <SCORE.INTRA.REPUL.0>
0

>  <SCORE.INTRA.VDW>
0.0708593

>  <SCORE.INTRA.VDW.0>
-0.439351

>  <SCORE.INTRA.norm>
-0.00140559

>  <SCORE.RESTR>
0

>  <SCORE.RESTR.CAVITY>
0

>  <SCORE.RESTR.norm>
0

>  <SCORE.SYSTEM>
-1.50016

>  <SCORE.SYSTEM.CONST>
0

>  <SCORE.SYSTEM.DIHEDRAL>
0.262705

>  <SCORE.SYSTEM.POLAR>
-0.500625

>  <SCORE.SYSTEM.VDW>
0.0706079

>  <SCORE.SYSTEM.norm>
-0.0937603

>  <SCORE.heavy>
16

>  <SCORE.norm>
-0.632618

>  <enum_code>
B

>  <enum_smi>
CCCCN(C)Cc1nc2ccccc2[nH]1

>  <sha256>
6a33d1ae81811c4c560d91d11e3d923a6f2cbbca3c5192f5a65c4f1c1941a1a4

>  <std_smi>
CCCCN(C)Cc1nc2ccccc2[nH]1

>  <uuid>
b3b77060-5963-4043-aafc-f21cbd7ca723

$$$$
b3b77060-5963-4043-aafc-f21cbd7ca723
  rDOCK(R)          3D
libRbt.so/2013.1/901 2013/11/27
 17 18  0  0  0  0  0  0  0  0999 V2000
   -6.2083   27.7045    4.8981 C   0  0  0  0  0  0
   -5.3811   26.5319    5.4026 C   0  0  0  0  0  0
   -4.1248   26.2656    4.5664 C   0  0  0  0  0  0
   -3.2916   25.0869    5.0928 C   0  0  0  0  0  0
   -2.0663   24.7898    4.3165 N   0  0  0  0  0  0
   -1.6662   23.4019    4.5846 C   0  0  0  0  0  0
   -0.9448   25.6953    4.6610 C   0  0  0  0  0  0
   -1.0540   27.0203    3.9735 C   0  0  0  0  0  0
   -0.7531   27.3007    2.7202 N   0  0  0  0  0  0
   -1.0056   28.6438    2.5735 C   0  0  0  0  0  0
   -0.8452   29.4701    1.4515 C   0  0  0  0  0  0
   -1.1686   30.8284    1.5651 C   0  0  0  0  0  0
   -1.6448   31.3519    2.7704 C   0  0  0  0  0  0
   -1.8118   30.5423    3.9005 C   0  0  0  0  0  0
   -1.4820   29.1939    3.7586 C   0  0  0  0  0  0
   -1.5106   28.1383    4.6292 N   0  0  0  0  0  0
   -1.7579   28.1582    5.6079 H   0  0  0  0  0  0
  1  2  1  0  0  0
  2  3  1  0  0  0
  3  4  1  0  0  0
  4  5  1  0  0  0
  5  6  1  0  0  0
  5  7  1  0  0  0
  7  8  1  0  0  0
  8  9  2  0  0  0
  9 10  1  0  0  0
 10 11  2  0  0  0
 11 12  1  0  0  0
 12 13  2  0  0  0
 13 14  1  0  0  0
 14 15  2  0  0  0
 15 16  1  0  0  0
 16  8  1  0  0  0
 15 10  1  0  0  0
 16 17  1  0  0  0
M  END
>  <CHROM.0>
-59.88758699,68.01873773

>  <CHROM.1>
179.51238159,179.98112937,-158.68056242,-80.45578436,-78.32197453,-2.24251245
27.53363403,3.85697865,1.95425920,-0.36968547,2.84640242

>  <Name>
b3b77060-5963-4043-aafc-f21cbd7ca723

>  <RI>
3.11309e+07

>  <Rbt.Current_Directory>
/data/work/jku/5V6S/work/40/8dba899c20c42488f2b1a17844994e

>  <Rbt.Executable>
rbdock ($Id: //depot/dev/client3/rdock/2013.1/src/exe/rbdock.cxx#4 $)

>  <Rbt.Library>
libRbt.so (2013.1, Build901 2013/11/27)

>  <Rbt.Parameter_File>
/rDock_2013.1_src/data/scripts/dock.prm

>  <Rbt.Receptor>
docking.prm

>  <SCORE>
-10.4348

>  <SCORE.INTER>
-7.45664

>  <SCORE.INTER.CONST>
1

>  <SCORE.INTER.POLAR>
0

>  <SCORE.INTER.REPUL>
0

>  <SCORE.INTER.ROT>
5

>  <SCORE.INTER.VDW>
-17.8566

>  <SCORE.INTER.norm>
-0.46604

>  <SCORE.INTRA>
-1.46828

>  <SCORE.INTRA.DIHEDRAL>
-0.665749

>  <SCORE.INTRA.DIHEDRAL.0>
3.2891

>  <SCORE.INTRA.POLAR>
0

>  <SCORE.INTRA.POLAR.0>
0

>  <SCORE.INTRA.REPUL>
0

>  <SCORE.INTRA.REPUL.0>
0

>  <SCORE.INTRA.VDW>
-1.13541

>  <SCORE.INTRA.VDW.0>
-0.439351

>  <SCORE.INTRA.norm>
-0.0917675

>  <SCORE.RESTR>
0

>  <SCORE.RESTR.CAVITY>
0

>  <SCORE.RESTR.norm>
0

>  <SCORE.SYSTEM>
-1.50988

>  <SCORE.SYSTEM.CONST>
0

>  <SCORE.SYSTEM.DIHEDRAL>
0.320306

>  <SCORE.SYSTEM.POLAR>
-0.501994

>  <SCORE.SYSTEM.VDW>
0.0367415

>  <SCORE.SYSTEM.norm>
-0.0943678

>  <SCORE.heavy>
16

>  <SCORE.norm>
-0.652175

>  <enum_code>
B

>  <enum_smi>
CCCCN(C)Cc1nc2ccccc2[nH]1

>  <sha256>
6a33d1ae81811c4c560d91d11e3d923a6f2cbbca3c5192f5a65c4f1c1941a1a4

>  <std_smi>
CCCCN(C)Cc1nc2ccccc2[nH]1

>  <uuid>
b3b77060-5963-4043-aafc-f21cbd7ca723

$$$$
b3b77060-5963-4043-aafc-f21cbd7ca723
  rDOCK(R)          3D
libRbt.so/2013.1/901 2013/11/27
 17 18  0  0  0  0  0  0  0  0999 V2000
    0.3955   22.9616    3.9313 C   0  0  0  0  0  0
   -0.5209   23.8724    4.7338 C   0  0  0  0  0  0
   -0.3953   25.3522    4.3561 C   0  0  0  0  0  0
   -1.3631   26.2555    5.1358 C   0  0  0  0  0  0
   -1.3387   27.6837    4.7460 N   0  0  0  0  0  0
   -2.0445   28.4622    5.7727 C   0  0  0  0  0  0
   -1.9765   27.9221    3.4297 C   0  0  0  0  0  0
   -1.4022   29.1133    2.7287 C   0  0  0  0  0  0
   -0.6575   29.1213    1.6401 N   0  0  0  0  0  0
   -0.3678   30.4438    1.4029 C   0  0  0  0  0  0
    0.4032   31.0256    0.3858 C   0  0  0  0  0  0
    0.5561   32.4180    0.3710 C   0  0  0  0  0  0
   -0.0489   33.2144    1.3473 C   0  0  0  0  0  0
   -0.8224   32.6515    2.3697 C   0  0  0  0  0  0
   -0.9577   31.2628    2.3597 C   0  0  0  0  0  0
   -1.6156   30.3918    3.1852 N   0  0  0  0  0  0
   -2.1248   30.6134    4.0285 H   0  0  0  0  0  0
  1  2  1  0  0  0
  2  3  1  0  0  0
  3  4  1  0  0  0
  4  5  1  0  0  0
  5  6  1  0  0  0
  5  7  1  0  0  0
  7  8  1  0  0  0
  8  9  2  0  0  0
  9 10  1  0  0  0
 10 11  2  0  0  0
 11 12  1  0  0  0
 12 13  2  0  0  0
 13 14  1  0  0  0
 14 15  2  0  0  0
 15 16  1  0  0  0
 16  8  1  0  0  0
 15 10  1  0  0  0
 16 17  1  0  0  0
M  END
>  <CHROM.0>
-59.88758699,68.68197908

>  <CHROM.1>
177.83412206,-176.37827774,-166.16824814,-151.63870887,110.78042274,-0.77693075
28.76052177,3.07335853,-1.64814967,0.95846589,-0.35888951

>  <Name>
b3b77060-5963-4043-aafc-f21cbd7ca723

>  <RI>
3.11309e+07

>  <Rbt.Current_Directory>
/data/work/jku/5V6S/work/40/8dba899c20c42488f2b1a17844994e

>  <Rbt.Executable>
rbdock ($Id: //depot/dev/client3/rdock/2013.1/src/exe/rbdock.cxx#4 $)

>  <Rbt.Library>
libRbt.so (2013.1, Build901 2013/11/27)

>  <Rbt.Parameter_File>
/rDock_2013.1_src/data/scripts/dock.prm

>  <Rbt.Receptor>
docking.prm

>  <SCORE>
-12.0357

>  <SCORE.INTER>
-10.0781

>  <SCORE.INTER.CONST>
1

>  <SCORE.INTER.POLAR>
0

>  <SCORE.INTER.REPUL>
1.57733e-05

>  <SCORE.INTER.ROT>
5

>  <SCORE.INTER.VDW>
-20.4782

>  <SCORE.INTER.norm>
-0.629884

>  <SCORE.INTRA>
-0.44414

>  <SCORE.INTRA.DIHEDRAL>
-0.523425

>  <SCORE.INTRA.DIHEDRAL.0>
3.2891

>  <SCORE.INTRA.POLAR>
0

>  <SCORE.INTRA.POLAR.0>
0

>  <SCORE.INTRA.REPUL>
0

>  <SCORE.INTRA.REPUL.0>
0

>  <SCORE.INTRA.VDW>
-0.182427

>  <SCORE.INTRA.VDW.0>
-0.439351

>  <SCORE.INTRA.norm>
-0.0277587

>  <SCORE.RESTR>
0

>  <SCORE.RESTR.CAVITY>
0

>  <SCORE.RESTR.norm>
0

>  <SCORE.SYSTEM>
-1.51342

>  <SCORE.SYSTEM.CONST>
0

>  <SCORE.SYSTEM.DIHEDRAL>
0.373239

>  <SCORE.SYSTEM.POLAR>
-0.50275

>  <SCORE.SYSTEM.VDW>
0.00930933

>  <SCORE.SYSTEM.norm>
-0.0945889

>  <SCORE.heavy>
16

>  <SCORE.norm>
-0.752232

>  <enum_code>
B

>  <enum_smi>
CCCCN(C)Cc1nc2ccccc2[nH]1

>  <sha256>
6a33d1ae81811c4c560d91d11e3d923a6f2cbbca3c5192f5a65c4f1c1941a1a4

>  <std_smi>
CCCCN(C)Cc1nc2ccccc2[nH]1

>  <uuid>
b3b77060-5963-4043-aafc-f21cbd7ca723

$$$$
b3b77060-5963-4043-aafc-f21cbd7ca723
  rDOCK(R)          3D
libRbt.so/2013.1/901 2013/11/27
 17 18  0  0  0  0  0  0  0  0999 V2000
   -2.6840   30.3302    6.1120 C   0  0  0  0  0  0
   -2.7206   31.5873    5.2564 C   0  0  0  0  0  0
   -1.7103   31.5721    4.1043 C   0  0  0  0  0  0
   -2.0738   30.5678    2.9999 C   0  0  0  0  0  0
   -0.9834   30.2647    2.0452 N   0  0  0  0  0  0
   -0.9835   31.2893    0.9923 C   0  0  0  0  0  0
   -1.1308   28.9274    1.4237 C   0  0  0  0  0  0
   -0.9360   27.8189    2.4103 C   0  0  0  0  0  0
    0.0902   26.9950    2.4986 N   0  0  0  0  0  0
   -0.2042   26.1522    3.5437 C   0  0  0  0  0  0
    0.5301   25.0762    4.0636 C   0  0  0  0  0  0
   -0.0016   24.3581    5.1425 C   0  0  0  0  0  0
   -1.2377   24.7066    5.6939 C   0  0  0  0  0  0
   -1.9845   25.7778    5.1886 C   0  0  0  0  0  0
   -1.4307   26.4750    4.1142 C   0  0  0  0  0  0
   -1.8701   27.5430    3.3798 N   0  0  0  0  0  0
   -2.7525   28.0257    3.4684 H   0  0  0  0  0  0
  1  2  1  0  0  0
  2  3  1  0  0  0
  3  4  1  0  0  0
  4  5  1  0  0  0
  5  6  1  0  0  0
  5  7  1  0  0  0
  7  8  1  0  0  0
  8  9  2  0  0  0
  9 10  1  0  0  0
 10 11  2  0  0  0
 11 12  1  0  0  0
 12 13  2  0  0  0
 13 14  1  0  0  0
 14 15  2  0  0  0
 15 16  1  0  0  0
 16  8  1  0  0  0
 15 10  1  0  0  0
 16 17  1  0  0  0
M  END
>  <CHROM.0>
-59.88758699,68.36293502

>  <CHROM.1>
70.18562211,-165.36078437,-84.94076746,-67.86904382,-108.06707889,-1.24091570
28.20817998,3.66797612,2.02663749,1.09413254,-0.64215205

>  <Name>
b3b77060-5963-4043-aafc-f21cbd7ca723

>  <RI>
3.11309e+07

>  <Rbt.Current_Directory>
/data/work/jku/5V6S/work/40/8dba899c20c42488f2b1a17844994e

>  <Rbt.Executable>
rbdock ($Id: //depot/dev/client3/rdock/2013.1/src/exe/rbdock.cxx#4 $)

>  <Rbt.Library>
libRbt.so (2013.1, Build901 2013/11/27)

>  <Rbt.Parameter_File>
/rDock_2013.1_src/data/scripts/dock.prm

>  <Rbt.Receptor>
docking.prm

>  <SCORE>
-9.35259

>  <SCORE.INTER>
-8.06532

>  <SCORE.INTER.CONST>
1

>  <SCORE.INTER.POLAR>
0

>  <SCORE.INTER.REPUL>
0

>  <SCORE.INTER.ROT>
5

>  <SCORE.INTER.VDW>
-18.4653

>  <SCORE.INTER.norm>
-0.504082

>  <SCORE.INTRA>
0.224977

>  <SCORE.INTRA.DIHEDRAL>
0.265836

>  <SCORE.INTRA.DIHEDRAL.0>
3.2891

>  <SCORE.INTRA.POLAR>
0

>  <SCORE.INTRA.POLAR.0>
0

>  <SCORE.INTRA.REPUL>
0

>  <SCORE.INTRA.REPUL.0>
0

>  <SCORE.INTRA.VDW>
0.0920593

>  <SCORE.INTRA.VDW.0>
-0.439351

>  <SCORE.INTRA.norm>
0.0140611

>  <SCORE.RESTR>
0

>  <SCORE.RESTR.CAVITY>
0

>  <SCORE.RESTR.norm>
0

>  <SCORE.SYSTEM>
-1.51225

>  <SCORE.SYSTEM.CONST>
0

>  <SCORE.SYSTEM.DIHEDRAL>
0.347285

>  <SCORE.SYSTEM.POLAR>
-0.502432

>  <SCORE.SYSTEM.VDW>
0.0223767

>  <SCORE.SYSTEM.norm>
-0.0945155

>  <SCORE.heavy>
16

>  <SCORE.norm>
-0.584537

>  <enum_code>
B

>  <enum_smi>
CCCCN(C)Cc1nc2ccccc2[nH]1

>  <sha256>
6a33d1ae81811c4c560d91d11e3d923a6f2cbbca3c5192f5a65c4f1c1941a1a4

>  <std_smi>
CCCCN(C)Cc1nc2ccccc2[nH]1

>  <uuid>
b3b77060-5963-4043-aafc-f21cbd7ca723

$$$$
2e442448-7468-43fd-b98c-6d1e555f7a9c
  rDOCK(R)          3D
libRbt.so/2013.1/901 2013/11/27
 18 19  0  0  0  0  0  0  0  0999 V2000
   -6.5560   26.1323    4.3112 C   0  0  0  0  0  0
   -5.1989   26.3023    4.9762 C   0  0  0  0  0  0
   -4.0861   25.4934    4.3069 C   0  0  0  0  0  0
   -2.7126   25.7079    4.9495 C   0  0  0  0  0  0
   -2.2761   27.1067    4.7988 N   0  0  0  0  0  0
   -2.1444   27.8583    6.0472 C   0  0  0  0  0  0
   -1.7483   27.5604    3.5894 C   0  0  0  0  0  0
   -1.3223   28.7717    3.1819 C   0  0  0  0  0  0
   -0.8221   29.0215    1.8952 N   0  0  0  0  0  0
   -0.8505   30.4213    1.7400 C   0  0  0  0  0  0
   -0.5333   31.1941    0.6480 C   0  0  0  0  0  0
   -0.6037   32.5830    0.8045 C   0  0  0  0  0  0
   -0.9664   33.1605    2.0405 C   0  0  0  0  0  0
   -1.2656   32.3634    3.1507 C   0  0  0  0  0  0
   -1.2060   31.0001    2.9795 C   0  0  0  0  0  0
   -1.4150   29.9637    3.9181 N   0  0  0  0  0  0
   -1.1821   28.4503    1.1456 H   0  0  0  0  0  0
   -2.2576   30.0315    4.4707 H   0  0  0  0  0  0
  1  2  1  0  0  0
  2  3  1  0  0  0
  3  4  1  0  0  0
  4  5  1  0  0  0
  5  6  1  0  0  0
  5  7  1  0  0  0
  7  8  2  0  0  0
  8  9  1  0  0  0
  9 10  1  0  0  0
 10 11  2  0  0  0
 11 12  1  0  0  0
 12 13  2  0  0  0
 13 14  1  0  0  0
 14 15  2  0  0  0
 15 16  1  0  0  0
 16  8  1  0  0  0
 15 10  1  0  0  0
  9 17  1  0  0  0
 16 18  1  0  0  0
M  END
>  <CHROM.0>
-59.88758699,68.62489943

>  <CHROM.1>
177.91298013,-63.56752546,115.11724248,-2.17650935,28.94043935,3.39510861
2.08281928,0.23122004,2.52623529

>  <Name>
2e442448-7468-43fd-b98c-6d1e555f7a9c

>  <RI>
2.78746e+07

>  <Rbt.Current_Directory>
/data/work/jku/5V6S/work/40/8dba899c20c42488f2b1a17844994e

>  <Rbt.Executable>
rbdock ($Id: //depot/dev/client3/rdock/2013.1/src/exe/rbdock.cxx#4 $)

>  <Rbt.Library>
libRbt.so (2013.1, Build901 2013/11/27)

>  <Rbt.Parameter_File>
/rDock_2013.1_src/data/scripts/dock.prm

>  <Rbt.Receptor>
docking.prm

>  <SCORE>
-14.0072

>  <SCORE.INTER>
-10.5863

>  <SCORE.INTER.CONST>
1

>  <SCORE.INTER.POLAR>
0

>  <SCORE.INTER.REPUL>
0

>  <SCORE.INTER.ROT>
3

>  <SCORE.INTER.VDW>
-18.9863

>  <SCORE.INTER.norm>
-0.661645

>  <SCORE.INTRA>
-1.90757

>  <SCORE.INTRA.DIHEDRAL>
-1.47665

>  <SCORE.INTRA.DIHEDRAL.0>
3.46116

>  <SCORE.INTRA.POLAR>
0

>  <SCORE.INTRA.POLAR.0>
0

>  <SCORE.INTRA.REPUL>
0

>  <SCORE.INTRA.REPUL.0>
0

>  <SCORE.INTRA.VDW>
-1.16925

>  <SCORE.INTRA.VDW.0>
0.790677

>  <SCORE.INTRA.norm>
-0.119223

>  <SCORE.RESTR>
0

>  <SCORE.RESTR.CAVITY>
0

>  <SCORE.RESTR.norm>
0

>  <SCORE.SYSTEM>
-1.51328

>  <SCORE.SYSTEM.CONST>
0

>  <SCORE.SYSTEM.DIHEDRAL>
0.368529

>  <SCORE.SYSTEM.POLAR>
-0.5027

>  <SCORE.SYSTEM.VDW>
0.0116298

>  <SCORE.SYSTEM.norm>
-0.0945803

>  <SCORE.heavy>
16

>  <SCORE.norm>
-0.875449

>  <enum_code>
T

>  <enum_smi>
CCCCN(C)C=C1Nc2ccccc2N1

>  <sha256>
6a33d1ae81811c4c560d91d11e3d923a6f2cbbca3c5192f5a65c4f1c1941a1a4

>  <std_smi>
CCCCN(C)Cc1nc2ccccc2[nH]1

>  <uuid>
2e442448-7468-43fd-b98c-6d1e555f7a9c

$$$$
2e442448-7468-43fd-b98c-6d1e555f7a9c
  rDOCK(R)          3D
libRbt.so/2013.1/901 2013/11/27
 18 19  0  0  0  0  0  0  0  0999 V2000
   -0.3660   33.1379    1.9201 C   0  0  0  0  0  0
   -1.1258   32.5702    3.1090 C   0  0  0  0  0  0
   -2.5906   32.2531    2.8018 C   0  0  0  0  0  0
   -2.7634   31.1409    1.7634 C   0  0  0  0  0  0
   -2.0131   29.9357    2.1562 N   0  0  0  0  0  0
   -1.0234   29.4709    1.1840 C   0  0  0  0  0  0
   -2.0465   29.4752    3.4730 C   0  0  0  0  0  0
   -1.4980   28.4014    4.0738 C   0  0  0  0  0  0
   -1.6621   28.1115    5.4366 N   0  0  0  0  0  0
   -1.2826   26.7634    5.5882 C   0  0  0  0  0  0
   -1.3148   25.9581    6.7022 C   0  0  0  0  0  0
   -0.8158   24.6577    6.5665 C   0  0  0  0  0  0
   -0.2844   24.2043    5.3399 C   0  0  0  0  0  0
   -0.2371   25.0408    4.2193 C   0  0  0  0  0  0
   -0.7433   26.3115    4.3623 C   0  0  0  0  0  0
   -0.7928   27.3725    3.4292 N   0  0  0  0  0  0
   -2.5203   28.4178    5.8692 H   0  0  0  0  0  0
   -1.1605   27.1419    2.5173 H   0  0  0  0  0  0
  1  2  1  0  0  0
  2  3  1  0  0  0
  3  4  1  0  0  0
  4  5  1  0  0  0
  5  6  1  0  0  0
  5  7  1  0  0  0
  7  8  2  0  0  0
  8  9  1  0  0  0
  9 10  1  0  0  0
 10 11  2  0  0  0
 11 12  1  0  0  0
 12 13  2  0  0  0
 13 14  1  0  0  0
 14 15  2  0  0  0
 15 16  1  0  0  0
 16  8  1  0  0  0
 15 10  1  0  0  0
  9 17  1  0  0  0
 16 18  1  0  0  0
M  END
>  <CHROM.0>
-59.88758699,68.74824585

>  <CHROM.1>
64.70824879,53.38375910,-122.41301658,-1.29566202,28.54062084,3.81017231
1.96462048,1.27276986,-0.85286193

>  <Name>
2e442448-7468-43fd-b98c-6d1e555f7a9c

>  <RI>
2.78746e+07

>  <Rbt.Current_Directory>
/data/work/jku/5V6S/work/40/8dba899c20c42488f2b1a17844994e

>  <Rbt.Executable>
rbdock ($Id: //depot/dev/client3/rdock/2013.1/src/exe/rbdock.cxx#4 $)

>  <Rbt.Library>
libRbt.so (2013.1, Build901 2013/11/27)

>  <Rbt.Parameter_File>
/rDock_2013.1_src/data/scripts/dock.prm

>  <Rbt.Receptor>
docking.prm

>  <SCORE>
-11.7245

>  <SCORE.INTER>
-10.1604

>  <SCORE.INTER.CONST>
1

>  <SCORE.INTER.POLAR>
0

>  <SCORE.INTER.REPUL>
0

>  <SCORE.INTER.ROT>
3

>  <SCORE.INTER.VDW>
-18.5604

>  <SCORE.INTER.norm>
-0.635024

>  <SCORE.INTRA>
-0.0505527

>  <SCORE.INTRA.DIHEDRAL>
-1.19397

>  <SCORE.INTRA.DIHEDRAL.0>
3.46116

>  <SCORE.INTRA.POLAR>
0

>  <SCORE.INTRA.POLAR.0>
0

>  <SCORE.INTRA.REPUL>
0

>  <SCORE.INTRA.REPUL.0>
0

>  <SCORE.INTRA.VDW>
0.546434

>  <SCORE.INTRA.VDW.0>
0.790677

>  <SCORE.INTRA.norm>
-0.00315955

>  <SCORE.RESTR>
0

>  <SCORE.RESTR.CAVITY>
0

>  <SCORE.RESTR.norm>
0

>  <SCORE.SYSTEM>
-1.51355

>  <SCORE.SYSTEM.CONST>
0

>  <SCORE.SYSTEM.DIHEDRAL>
0.378743

>  <SCORE.SYSTEM.POLAR>
-0.502806

>  <SCORE.SYSTEM.VDW>
0.00662478

>  <SCORE.SYSTEM.norm>
-0.0945966

>  <SCORE.heavy>
16

>  <SCORE.norm>
-0.73278

>  <enum_code>
T

>  <enum_smi>
CCCCN(C)C=C1Nc2ccccc2N1

>  <sha256>
6a33d1ae81811c4c560d91d11e3d923a6f2cbbca3c5192f5a65c4f1c1941a1a4

>  <std_smi>
CCCCN(C)Cc1nc2ccccc2[nH]1

>  <uuid>
2e442448-7468-43fd-b98c-6d1e555f7a9c

$$$$
2e442448-7468-43fd-b98c-6d1e555f7a9c
  rDOCK(R)          3D
libRbt.so/2013.1/901 2013/11/27
 18 19  0  0  0  0  0  0  0  0999 V2000
    1.6996   31.7544    0.0423 C   0  0  0  0  0  0
    0.2670   31.6886    0.5483 C   0  0  0  0  0  0
   -0.0552   32.7454    1.6066 C   0  0  0  0  0  0
   -1.5183   32.7219    2.0584 C   0  0  0  0  0  0
   -1.7505   31.6370    3.0273 N   0  0  0  0  0  0
   -2.5745   31.9957    4.1819 C   0  0  0  0  0  0
   -1.4549   30.3138    2.6973 C   0  0  0  0  0  0
   -1.5317   29.1646    3.3962 C   0  0  0  0  0  0
   -1.1729   27.9150    2.8689 N   0  0  0  0  0  0
   -1.0268   27.0604    3.9791 C   0  0  0  0  0  0
   -0.6227   25.7473    4.0340 C   0  0  0  0  0  0
   -0.6262   25.1284    5.2892 C   0  0  0  0  0  0
   -1.0473   25.8227    6.4439 C   0  0  0  0  0  0
   -1.4772   27.1522    6.3714 C   0  0  0  0  0  0
   -1.4557   27.7527    5.1343 C   0  0  0  0  0  0
   -1.8629   29.0527    4.7560 N   0  0  0  0  0  0
   -0.4539   27.9065    2.1614 H   0  0  0  0  0  0
   -1.5055   29.8095    5.3214 H   0  0  0  0  0  0
  1  2  1  0  0  0
  2  3  1  0  0  0
  3  4  1  0  0  0
  4  5  1  0  0  0
  5  6  1  0  0  0
  5  7  1  0  0  0
  7  8  2  0  0  0
  8  9  1  0  0  0
  9 10  1  0  0  0
 10 11  2  0  0  0
 11 12  1  0  0  0
 12 13  2  0  0  0
 13 14  1  0  0  0
 14 15  2  0  0  0
 15 16  1  0  0  0
 16  8  1  0  0  0
 15 10  1  0  0  0
  9 17  1  0  0  0
 16 18  1  0  0  0
M  END
>  <CHROM.0>
-59.88758699,68.46963091

>  <CHROM.1>
176.96611158,79.19193008,136.71210598,-0.99752948,29.33928356,3.46476336
-1.40544207,-0.85223052,2.68592855

>  <Name>
2e442448-7468-43fd-b98c-6d1e555f7a9c

>  <RI>
2.78746e+07

>  <Rbt.Current_Directory>
/data/work/jku/5V6S/work/40/8dba899c20c42488f2b1a17844994e

>  <Rbt.Executable>
rbdock ($Id: //depot/dev/client3/rdock/2013.1/src/exe/rbdock.cxx#4 $)

>  <Rbt.Library>
libRbt.so (2013.1, Build901 2013/11/27)

>  <Rbt.Parameter_File>
/rDock_2013.1_src/data/scripts/dock.prm

>  <Rbt.Receptor>
docking.prm

>  <SCORE>
-13.8452

>  <SCORE.INTER>
-12.062

>  <SCORE.INTER.CONST>
1

>  <SCORE.INTER.POLAR>
0

>  <SCORE.INTER.REPUL>
0

>  <SCORE.INTER.ROT>
3

>  <SCORE.INTER.VDW>
-20.462

>  <SCORE.INTER.norm>
-0.753873

>  <SCORE.INTRA>
-0.27044

>  <SCORE.INTRA.DIHEDRAL>
0.672715

>  <SCORE.INTRA.DIHEDRAL.0>
3.46116

>  <SCORE.INTRA.POLAR>
0

>  <SCORE.INTRA.POLAR.0>
0

>  <SCORE.INTRA.REPUL>
0

>  <SCORE.INTRA.REPUL.0>
0

>  <SCORE.INTRA.VDW>
-0.606798

>  <SCORE.INTRA.VDW.0>
0.790677

>  <SCORE.INTRA.norm>
-0.0169025

>  <SCORE.RESTR>
0

>  <SCORE.RESTR.CAVITY>
0

>  <SCORE.RESTR.norm>
0

>  <SCORE.SYSTEM>
-1.51275

>  <SCORE.SYSTEM.CONST>
0

>  <SCORE.SYSTEM.DIHEDRAL>
0.355864

>  <SCORE.SYSTEM.POLAR>
-0.502547

>  <SCORE.SYSTEM.VDW>
0.0179803

>  <SCORE.SYSTEM.norm>
-0.0945468

>  <SCORE.heavy>
16

>  <SCORE.norm>
-0.865322

>  <enum_code>
T

>  <enum_smi>
CCCCN(C)C=C1Nc2ccccc2N1

>  <sha256>
6a33d1ae81811c4c560d91d11e3d923a6f2cbbca3c5192f5a65c4f1c1941a1a4

>  <std_smi>
CCCCN(C)Cc1nc2ccccc2[nH]1

>  <uuid>
2e442448-7468-43fd-b98c-6d1e555f7a9c

$$$$
2e442448-7468-43fd-b98c-6d1e555f7a9c
  rDOCK(R)          3D
libRbt.so/2013.1/901 2013/11/27
 18 19  0  0  0  0  0  0  0  0999 V2000
   -7.1873   25.1907    3.8350 C   0  0  0  0  0  0
   -5.7184   25.1115    4.2210 C   0  0  0  0  0  0
   -4.9577   26.4200    3.9981 C   0  0  0  0  0  0
   -3.4874   26.3438    4.4196 C   0  0  0  0  0  0
   -2.8314   27.6545    4.2731 N   0  0  0  0  0  0
   -2.8057   28.4792    5.4814 C   0  0  0  0  0  0
   -2.0445   27.9348    3.1553 C   0  0  0  0  0  0
   -1.3826   29.0413    2.7650 C   0  0  0  0  0  0
   -0.6394   29.1177    1.5776 N   0  0  0  0  0  0
   -0.4355   30.4916    1.3430 C   0  0  0  0  0  0
    0.1728   31.1249    0.2849 C   0  0  0  0  0  0
    0.2810   32.5186    0.3495 C   0  0  0  0  0  0
   -0.1984   33.2368    1.4662 C   0  0  0  0  0  0
   -0.7958   32.5786    2.5467 C   0  0  0  0  0  0
   -0.9084   31.2104    2.4644 C   0  0  0  0  0  0
   -1.4237   30.2900    3.4057 N   0  0  0  0  0  0
   -0.9461   28.5420    0.8081 H   0  0  0  0  0  0
   -2.3291   30.5145    3.7930 H   0  0  0  0  0  0
  1  2  1  0  0  0
  2  3  1  0  0  0
  3  4  1  0  0  0
  4  5  1  0  0  0
  5  6  1  0  0  0
  5  7  1  0  0  0
  7  8  2  0  0  0
  8  9  1  0  0  0
  9 10  1  0  0  0
 10 11  2  0  0  0
 11 12  1  0  0  0
 12 13  2  0  0  0
 13 14  1  0  0  0
 14 15  2  0  0  0
 15 16  1  0  0  0
 16  8  1  0  0  0
 15 10  1  0  0  0
  9 17  1  0  0  0
 16 18  1  0  0  0
M  END
>  <CHROM.0>
-59.88758699,68.67629205

>  <CHROM.1>
178.63628901,-175.95547346,94.35136757,-2.24179067,29.06974088,2.90898263
3.00910163,0.91234560,1.28702499

>  <Name>
2e442448-7468-43fd-b98c-6d1e555f7a9c

>  <RI>
2.78746e+07

>  <Rbt.Current_Directory>
/data/work/jku/5V6S/work/40/8dba899c20c42488f2b1a17844994e

>  <Rbt.Executable>
rbdock ($Id: //depot/dev/client3/rdock/2013.1/src/exe/rbdock.cxx#4 $)

>  <Rbt.Library>
libRbt.so (2013.1, Build901 2013/11/27)

>  <Rbt.Parameter_File>
/rDock_2013.1_src/data/scripts/dock.prm

>  <Rbt.Receptor>
docking.prm

>  <SCORE>
-13.9157

>  <SCORE.INTER>
-10.4284

>  <SCORE.INTER.CONST>
1

>  <SCORE.INTER.POLAR>
0

>  <SCORE.INTER.REPUL>
0

>  <SCORE.INTER.ROT>
3

>  <SCORE.INTER.VDW>
-18.8284

>  <SCORE.INTER.norm>
-0.651777

>  <SCORE.INTRA>
-1.97389

>  <SCORE.INTRA.DIHEDRAL>
-1.82285

>  <SCORE.INTRA.DIHEDRAL.0>
3.46116

>  <SCORE.INTRA.POLAR>
0

>  <SCORE.INTRA.POLAR.0>
0

>  <SCORE.INTRA.REPUL>
0

>  <SCORE.INTRA.REPUL.0>
0

>  <SCORE.INTRA.VDW>
-1.06246

>  <SCORE.INTRA.VDW.0>
0.790677

>  <SCORE.INTRA.norm>
-0.123368

>  <SCORE.RESTR>
0

>  <SCORE.RESTR.CAVITY>
0

>  <SCORE.RESTR.norm>
0

>  <SCORE.SYSTEM>
-1.51341

>  <SCORE.SYSTEM.CONST>
0

>  <SCORE.SYSTEM.DIHEDRAL>
0.372768

>  <SCORE.SYSTEM.POLAR>
-0.502746

>  <SCORE.SYSTEM.VDW>
0.00954019

>  <SCORE.SYSTEM.norm>
-0.0945882

>  <SCORE.heavy>
16

>  <SCORE.norm>
-0.869734

>  <enum_code>
T

>  <enum_smi>
CCCCN(C)C=C1Nc2ccccc2N1

>  <sha256>
6a33d1ae81811c4c560d91d11e3d923a6f2cbbca3c5192f5a65c4f1c1941a1a4

>  <std_smi>
CCCCN(C)Cc1nc2ccccc2[nH]1

>  <uuid>
2e442448-7468-43fd-b98c-6d1e555f7a9c

$$$$
2e442448-7468-43fd-b98c-6d1e555f7a9c
  rDOCK(R)          3D
libRbt.so/2013.1/901 2013/11/27
 18 19  0  0  0  0  0  0  0  0999 V2000
   -0.4442   24.6134    6.1844 C   0  0  0  0  0  0
   -1.5394   25.6635    6.0807 C   0  0  0  0  0  0
   -2.4842   25.4447    4.8974 C   0  0  0  0  0  0
   -3.5385   26.5462    4.7540 C   0  0  0  0  0  0
   -2.9021   27.8538    4.5202 N   0  0  0  0  0  0
   -2.9353   28.7770    5.6549 C   0  0  0  0  0  0
   -2.0806   28.0566    3.4106 C   0  0  0  0  0  0
   -1.4256   29.1405    2.9514 C   0  0  0  0  0  0
   -0.6414   29.1333    1.7882 N   0  0  0  0  0  0
   -0.4546   30.4869    1.4457 C   0  0  0  0  0  0
    0.1798   31.0423    0.3597 C   0  0  0  0  0  0
    0.2597   32.4386    0.3102 C   0  0  0  0  0  0
   -0.2730   33.2371    1.3452 C   0  0  0  0  0  0
   -0.8968   32.6589    2.4561 C   0  0  0  0  0  0
   -0.9810   31.2866    2.4856 C   0  0  0  0  0  0
   -1.5129   30.4372    3.4828 N   0  0  0  0  0  0
   -0.9094   28.4888    1.0599 H   0  0  0  0  0  0
   -2.4357   30.6738    3.8183 H   0  0  0  0  0  0
  1  2  1  0  0  0
  2  3  1  0  0  0
  3  4  1  0  0  0
  4  5  1  0  0  0
  5  6  1  0  0  0
  5  7  1  0  0  0
  7  8  2  0  0  0
  8  9  1  0  0  0
  9 10  1  0  0  0
 10 11  2  0  0  0
 11 12  1  0  0  0
 12 13  2  0  0  0
 13 14  1  0  0  0
 14 15  2  0  0  0
 15 16  1  0  0  0
 16  8  1  0  0  0
 15 10  1  0  0  0
  9 17  1  0  0  0
 16 18  1  0  0  0
M  END
>  <CHROM.0>
-59.88758699,69.12600108

>  <CHROM.1>
-176.90425392,61.36159682,-106.83576613,-1.38987874,29.07179541,3.34082989
-1.89540085,0.75737948,-0.38078056

>  <Name>
2e442448-7468-43fd-b98c-6d1e555f7a9c

>  <RI>
2.78746e+07

>  <Rbt.Current_Directory>
/data/work/jku/5V6S/work/40/8dba899c20c42488f2b1a17844994e

>  <Rbt.Executable>
rbdock ($Id: //depot/dev/client3/rdock/2013.1/src/exe/rbdock.cxx#4 $)

>  <Rbt.Library>
libRbt.so (2013.1, Build901 2013/11/27)

>  <Rbt.Parameter_File>
/rDock_2013.1_src/data/scripts/dock.prm

>  <Rbt.Receptor>
docking.prm

>  <SCORE>
-13.0259

>  <SCORE.INTER>
-10.4342

>  <SCORE.INTER.CONST>
1

>  <SCORE.INTER.POLAR>
0

>  <SCORE.INTER.REPUL>
0

>  <SCORE.INTER.ROT>
3

>  <SCORE.INTER.VDW>
-18.8342

>  <SCORE.INTER.norm>
-0.652136

>  <SCORE.INTRA>
-1.0783

>  <SCORE.INTRA.DIHEDRAL>
-0.740432

>  <SCORE.INTRA.DIHEDRAL.0>
3.46116

>  <SCORE.INTRA.POLAR>
0

>  <SCORE.INTRA.POLAR.0>
0

>  <SCORE.INTRA.REPUL>
0

>  <SCORE.INTRA.REPUL.0>
0

>  <SCORE.INTRA.VDW>
-0.70808

>  <SCORE.INTRA.VDW.0>
0.790677

>  <SCORE.INTRA.norm>
-0.0673935

>  <SCORE.RESTR>
0

>  <SCORE.RESTR.CAVITY>
0

>  <SCORE.RESTR.norm>
0

>  <SCORE.SYSTEM>
-1.51345

>  <SCORE.SYSTEM.CONST>
0

>  <SCORE.SYSTEM.DIHEDRAL>
0.41086

>  <SCORE.SYSTEM.POLAR>
-0.503057

>  <SCORE.SYSTEM.VDW>
-0.00848599

>  <SCORE.SYSTEM.norm>
-0.0945905

>  <SCORE.heavy>
16

>  <SCORE.norm>
-0.81412

>  <enum_code>
T

>  <enum_smi>
CCCCN(C)C=C1Nc2ccccc2N1

>  <sha256>
6a33d1ae81811c4c560d91d11e3d923a6f2cbbca3c5192f5a65c4f1c1941a1a4

>  <std_smi>
CCCCN(C)Cc1nc2ccccc2[nH]1

>  <uuid>
2e442448-7468-43fd-b98c-6d1e555f7a9c

$$$$
4703a455-3069-4ba0-90e1-81743559cd1e
  rDOCK(R)          3D
libRbt.so/2013.1/901 2013/11/27
 16 17  0  0  0  0  0  0  0  0999 V2000
   -2.9339   21.0846    2.8944 C   0  0  0  0  0  0
   -3.2469   22.3141    3.7333 C   0  0  0  0  0  0
   -2.0016   23.0958    4.1662 C   0  0  0  0  0  0
   -2.3375   24.3656    4.9655 C   0  0  0  0  0  0
   -1.2082   25.1551    5.4597 N   0  0  0  0  0  0
   -0.5352   24.5532    6.6064 C   0  0  0  0  0  0
   -1.5939   26.5645    5.7562 C   0  0  0  0  0  0
   -1.4913   27.5785    4.6456 C   0  0  0  0  0  0
   -1.1025   27.2870    3.3779 N   0  0  0  0  0  0
   -1.1003   28.4494    2.6782 C   0  0  0  0  0  0
   -0.8078   28.7273    1.3385 C   0  0  0  0  0  0
   -0.8983   30.0577    0.9184 C   0  0  0  0  0  0
   -1.2681   31.0808    1.8051 C   0  0  0  0  0  0
   -1.5610   30.8121    3.1453 C   0  0  0  0  0  0
   -1.4735   29.4833    3.5742 C   0  0  0  0  0  0
   -1.6869   28.9116    4.7853 N   0  5  0  0  0  0
  1  2  1  0  0  0
  2  3  1  0  0  0
  3  4  1  0  0  0
  4  5  1  0  0  0
  5  6  1  0  0  0
  5  7  1  0  0  0
  7  8  1  0  0  0
  8  9  2  0  0  0
  9 10  1  0  0  0
 10 11  2  0  0  0
 11 12  1  0  0  0
 12 13  2  0  0  0
 13 14  1  0  0  0
 14 15  2  0  0  0
 15 16  1  0  0  0
 16  8  1  0  0  0
 15 10  1  0  0  0
M  END
>  <CHROM.0>
-59.88758699,69.27330264

>  <CHROM.1>
177.70930775,178.06957274,-74.88832932,-89.19131417,1.78845600,-1.59396137
26.69909212,3.78899214,2.20375578,1.32405386,2.25728193

>  <Name>
4703a455-3069-4ba0-90e1-81743559cd1e

>  <RI>
2.51057e+07

>  <Rbt.Current_Directory>
/data/work/jku/5V6S/work/40/8dba899c20c42488f2b1a17844994e

>  <Rbt.Executable>
rbdock ($Id: //depot/dev/client3/rdock/2013.1/src/exe/rbdock.cxx#4 $)

>  <Rbt.Library>
libRbt.so (2013.1, Build901 2013/11/27)

>  <Rbt.Parameter_File>
/rDock_2013.1_src/data/scripts/dock.prm

>  <Rbt.Receptor>
docking.prm

>  <SCORE>
-10.697

>  <SCORE.INTER>
-7.45568

>  <SCORE.INTER.CONST>
1

>  <SCORE.INTER.POLAR>
0

>  <SCORE.INTER.REPUL>
0

>  <SCORE.INTER.ROT>
5

>  <SCORE.INTER.VDW>
-17.8557

>  <SCORE.INTER.norm>
-0.46598

>  <SCORE.INTRA>
-1.72831

>  <SCORE.INTRA.DIHEDRAL>
1.56514

>  <SCORE.INTRA.DIHEDRAL.0>
1.72662

>  <SCORE.INTRA.POLAR>
0

>  <SCORE.INTRA.POLAR.0>
0

>  <SCORE.INTRA.REPUL>
0

>  <SCORE.INTRA.REPUL.0>
0

>  <SCORE.INTRA.VDW>
-2.51088

>  <SCORE.INTRA.VDW.0>
1.80076

>  <SCORE.INTRA.norm>
-0.108019

>  <SCORE.RESTR>
0

>  <SCORE.RESTR.CAVITY>
0

>  <SCORE.RESTR.norm>
0

>  <SCORE.SYSTEM>
-1.51305

>  <SCORE.SYSTEM.CONST>
0

>  <SCORE.SYSTEM.DIHEDRAL>
0.423723

>  <SCORE.SYSTEM.POLAR>
-0.503123

>  <SCORE.SYSTEM.VDW>
-0.0142902

>  <SCORE.SYSTEM.norm>
-0.0945654

>  <SCORE.heavy>
16

>  <SCORE.norm>
-0.668565

>  <enum_code>
M

>  <enum_smi>
CCCCN(C)Cc1nc2ccccc2[n-]1

>  <sha256>
6a33d1ae81811c4c560d91d11e3d923a6f2cbbca3c5192f5a65c4f1c1941a1a4

>  <std_smi>
CCCCN(C)Cc1nc2ccccc2[nH]1

>  <uuid>
4703a455-3069-4ba0-90e1-81743559cd1e

$$$$
4703a455-3069-4ba0-90e1-81743559cd1e
  rDOCK(R)          3D
libRbt.so/2013.1/901 2013/11/27
 16 17  0  0  0  0  0  0  0  0999 V2000
    0.6738   32.0950    0.2498 C   0  0  0  0  0  0
   -0.5814   32.4593    1.0277 C   0  0  0  0  0  0
   -0.2958   33.0608    2.4082 C   0  0  0  0  0  0
   -1.5742   33.4297    3.1787 C   0  0  0  0  0  0
   -2.4817   32.3330    3.5196 N   0  0  0  0  0  0
   -3.8803   32.7410    3.6067 C   0  0  0  0  0  0
   -2.0629   31.6211    4.7609 C   0  0  0  0  0  0
   -2.6132   30.2399    5.0088 C   0  0  0  0  0  0
   -1.8524   29.1193    5.1013 N   0  0  0  0  0  0
   -2.6949   28.0732    5.2928 C   0  0  0  0  0  0
   -2.4539   26.7071    5.4756 C   0  0  0  0  0  0
   -3.5614   25.8716    5.6486 C   0  0  0  0  0  0
   -4.8695   26.3804    5.6393 C   0  0  0  0  0  0
   -5.1192   27.7436    5.4563 C   0  0  0  0  0  0
   -4.0165   28.5870    5.2830 C   0  0  0  0  0  0
   -3.9286   29.9257    5.0842 N   0  5  0  0  0  0
  1  2  1  0  0  0
  2  3  1  0  0  0
  3  4  1  0  0  0
  4  5  1  0  0  0
  5  6  1  0  0  0
  5  7  1  0  0  0
  7  8  1  0  0  0
  8  9  2  0  0  0
  9 10  1  0  0  0
 10 11  2  0  0  0
 11 12  1  0  0  0
 12 13  2  0  0  0
 13 14  1  0  0  0
 14 15  2  0  0  0
 15 16  1  0  0  0
 16  8  1  0  0  0
 15 10  1  0  0  0
M  END
>  <CHROM.0>
-59.88758699,68.99355499

>  <CHROM.1>
179.72511412,62.70413017,-150.72505301,-161.24655236,118.04395600,-2.53166792
30.13841242,4.09592207,-1.02428699,-0.63988441,2.92222888

>  <Name>
4703a455-3069-4ba0-90e1-81743559cd1e

>  <RI>
2.51057e+07

>  <Rbt.Current_Directory>
/data/work/jku/5V6S/work/40/8dba899c20c42488f2b1a17844994e

>  <Rbt.Executable>
rbdock ($Id: //depot/dev/client3/rdock/2013.1/src/exe/rbdock.cxx#4 $)

>  <Rbt.Library>
libRbt.so (2013.1, Build901 2013/11/27)

>  <Rbt.Parameter_File>
/rDock_2013.1_src/data/scripts/dock.prm

>  <Rbt.Receptor>
docking.prm

>  <SCORE>
-11.7844

>  <SCORE.INTER>
-8.10916

>  <SCORE.INTER.CONST>
1

>  <SCORE.INTER.POLAR>
0

>  <SCORE.INTER.REPUL>
0

>  <SCORE.INTER.ROT>
5

>  <SCORE.INTER.VDW>
-18.5092

>  <SCORE.INTER.norm>
-0.506822

>  <SCORE.INTRA>
-2.16163

>  <SCORE.INTRA.DIHEDRAL>
0.960698

>  <SCORE.INTRA.DIHEDRAL.0>
1.72662

>  <SCORE.INTRA.POLAR>
0

>  <SCORE.INTRA.POLAR.0>
0

>  <SCORE.INTRA.REPUL>
0

>  <SCORE.INTRA.REPUL.0>
0

>  <SCORE.INTRA.VDW>
-2.64198

>  <SCORE.INTRA.VDW.0>
1.80076

>  <SCORE.INTRA.norm>
-0.135102

>  <SCORE.RESTR>
0

>  <SCORE.RESTR.CAVITY>
0

>  <SCORE.RESTR.norm>
0

>  <SCORE.SYSTEM>
-1.51364

>  <SCORE.SYSTEM.CONST>
0

>  <SCORE.SYSTEM.DIHEDRAL>
0.399456

>  <SCORE.SYSTEM.POLAR>
-0.502982

>  <SCORE.SYSTEM.VDW>
-0.0032251

>  <SCORE.SYSTEM.norm>
-0.0946022

>  <SCORE.heavy>
16

>  <SCORE.norm>
-0.736527

>  <enum_code>
M

>  <enum_smi>
CCCCN(C)Cc1nc2ccccc2[n-]1

>  <sha256>
6a33d1ae81811c4c560d91d11e3d923a6f2cbbca3c5192f5a65c4f1c1941a1a4

>  <std_smi>
CCCCN(C)Cc1nc2ccccc2[nH]1

>  <uuid>
4703a455-3069-4ba0-90e1-81743559cd1e

$$$$
4703a455-3069-4ba0-90e1-81743559cd1e
  rDOCK(R)          3D
libRbt.so/2013.1/901 2013/11/27
 16 17  0  0  0  0  0  0  0  0999 V2000
   -3.3865   21.1083    4.0507 C   0  0  0  0  0  0
   -3.2713   22.4321    4.7906 C   0  0  0  0  0  0
   -2.3624   23.4495    4.0920 C   0  0  0  0  0  0
   -2.2741   24.7895    4.8407 C   0  0  0  0  0  0
   -1.4833   25.8487    4.2118 N   0  0  0  0  0  0
   -0.0444   25.6103    4.2656 C   0  0  0  0  0  0
   -1.8141   27.1967    4.7562 C   0  0  0  0  0  0
   -1.5747   28.3973    3.8769 C   0  0  0  0  0  0
   -1.0660   28.3347    2.6196 N   0  0  0  0  0  0
   -0.9646   29.6073    2.1606 C   0  0  0  0  0  0
   -0.5306   30.1210    0.9336 C   0  0  0  0  0  0
   -0.5457   31.5095    0.7711 C   0  0  0  0  0  0
   -0.9790   32.3612    1.7991 C   0  0  0  0  0  0
   -1.4131   31.8565    3.0283 C   0  0  0  0  0  0
   -1.4018   30.4680    3.1993 C   0  0  0  0  0  0
   -1.7512   29.6870    4.2516 N   0  5  0  0  0  0
  1  2  1  0  0  0
  2  3  1  0  0  0
  3  4  1  0  0  0
  4  5  1  0  0  0
  5  6  1  0  0  0
  5  7  1  0  0  0
  7  8  1  0  0  0
  8  9  2  0  0  0
  9 10  1  0  0  0
 10 11  2  0  0  0
 11 12  1  0  0  0
 12 13  2  0  0  0
 13 14  1  0  0  0
 14 15  2  0  0  0
 15 16  1  0  0  0
 16  8  1  0  0  0
 15 10  1  0  0  0
M  END
>  <CHROM.0>
-59.88758699,68.84301765

>  <CHROM.1>
179.09264765,-176.90315709,-72.34428763,-154.14254240,-0.52041831,-1.57497599
27.51188280,3.40010674,-2.35938810,1.29956563,0.49063891

>  <Name>
4703a455-3069-4ba0-90e1-81743559cd1e

>  <RI>
2.51057e+07

>  <Rbt.Current_Directory>
/data/work/jku/5V6S/work/40/8dba899c20c42488f2b1a17844994e

>  <Rbt.Executable>
rbdock ($Id: //depot/dev/client3/rdock/2013.1/src/exe/rbdock.cxx#4 $)

>  <Rbt.Library>
libRbt.so (2013.1, Build901 2013/11/27)

>  <Rbt.Parameter_File>
/rDock_2013.1_src/data/scripts/dock.prm

>  <Rbt.Receptor>
docking.prm

>  <SCORE>
-11.1306

>  <SCORE.INTER>
-7.78195

>  <SCORE.INTER.CONST>
1

>  <SCORE.INTER.POLAR>
0

>  <SCORE.INTER.REPUL>
0

>  <SCORE.INTER.ROT>
5

>  <SCORE.INTER.VDW>
-18.182

>  <SCORE.INTER.norm>
-0.486372

>  <SCORE.INTRA>
-1.83499

>  <SCORE.INTRA.DIHEDRAL>
0.762471

>  <SCORE.INTRA.DIHEDRAL.0>
1.72662

>  <SCORE.INTRA.POLAR>
0

>  <SCORE.INTRA.POLAR.0>
0

>  <SCORE.INTRA.REPUL>
0

>  <SCORE.INTRA.REPUL.0>
0

>  <SCORE.INTRA.VDW>
-2.21623

>  <SCORE.INTRA.VDW.0>
1.80076

>  <SCORE.INTRA.norm>
-0.114687

>  <SCORE.RESTR>
0

>  <SCORE.RESTR.CAVITY>
0

>  <SCORE.RESTR.norm>
0

>  <SCORE.SYSTEM>
-1.51365

>  <SCORE.SYSTEM.CONST>
0

>  <SCORE.SYSTEM.DIHEDRAL>
0.386683

>  <SCORE.SYSTEM.POLAR>
-0.50288

>  <SCORE.SYSTEM.VDW>
0.00280304

>  <SCORE.SYSTEM.norm>
-0.094603

>  <SCORE.heavy>
16

>  <SCORE.norm>
-0.695662

>  <enum_code>
M

>  <enum_smi>
CCCCN(C)Cc1nc2ccccc2[n-]1

>  <sha256>
6a33d1ae81811c4c560d91d11e3d923a6f2cbbca3c5192f5a65c4f1c1941a1a4

>  <std_smi>
CCCCN(C)Cc1nc2ccccc2[nH]1

>  <uuid>
4703a455-3069-4ba0-90e1-81743559cd1e

$$$$
4703a455-3069-4ba0-90e1-81743559cd1e
  rDOCK(R)          3D
libRbt.so/2013.1/901 2013/11/27
 16 17  0  0  0  0  0  0  0  0999 V2000
   -4.2944   21.3530    3.2367 C   0  0  0  0  0  0
   -3.0612   21.9690    3.8795 C   0  0  0  0  0  0
   -3.3770   23.1382    4.8188 C   0  0  0  0  0  0
   -2.1215   23.7417    5.4696 C   0  0  0  0  0  0
   -1.1319   24.3389    4.5714 N   0  0  0  0  0  0
   -0.0071   23.4569    4.2763 C   0  0  0  0  0  0
   -0.6491   25.6604    5.0648 C   0  0  0  0  0  0
   -0.8900   26.8729    4.2024 C   0  0  0  0  0  0
   -0.5150   26.9722    2.9014 N   0  0  0  0  0  0
   -0.8672   28.2101    2.4723 C   0  0  0  0  0  0
   -0.7419   28.8323    1.2254 C   0  0  0  0  0  0
   -1.2113   30.1438    1.1059 C   0  0  0  0  0  0
   -1.7874   30.8161    2.1949 C   0  0  0  0  0  0
   -1.9155   30.2024    3.4443 C   0  0  0  0  0  0
   -1.4489   28.8897    3.5727 C   0  0  0  0  0  0
   -1.4272   28.0406    4.6299 N   0  5  0  0  0  0
  1  2  1  0  0  0
  2  3  1  0  0  0
  3  4  1  0  0  0
  4  5  1  0  0  0
  5  6  1  0  0  0
  5  7  1  0  0  0
  7  8  1  0  0  0
  8  9  2  0  0  0
  9 10  1  0  0  0
 10 11  2  0  0  0
 11 12  1  0  0  0
 12 13  2  0  0  0
 13 14  1  0  0  0
 14 15  2  0  0  0
 15 16  1  0  0  0
 16  8  1  0  0  0
 15 10  1  0  0  0
M  END
>  <CHROM.0>
-59.88758699,69.07232590

>  <CHROM.1>
179.49994198,62.36344324,-98.88016372,-118.78489570,-53.97635475,-1.61367704
26.26662486,3.60183969,1.83191197,0.76036814,2.69796519

>  <Name>
4703a455-3069-4ba0-90e1-81743559cd1e

>  <RI>
2.51057e+07

>  <Rbt.Current_Directory>
/data/work/jku/5V6S/work/40/8dba899c20c42488f2b1a17844994e

>  <Rbt.Executable>
rbdock ($Id: //depot/dev/client3/rdock/2013.1/src/exe/rbdock.cxx#4 $)

>  <Rbt.Library>
libRbt.so (2013.1, Build901 2013/11/27)

>  <Rbt.Parameter_File>
/rDock_2013.1_src/data/scripts/dock.prm

>  <Rbt.Receptor>
docking.prm

>  <SCORE>
-9.84321

>  <SCORE.INTER>
-7.42504

>  <SCORE.INTER.CONST>
1

>  <SCORE.INTER.POLAR>
0

>  <SCORE.INTER.REPUL>
0

>  <SCORE.INTER.ROT>
5

>  <SCORE.INTER.VDW>
-17.825

>  <SCORE.INTER.norm>
-0.464065

>  <SCORE.INTRA>
-0.90463

>  <SCORE.INTRA.DIHEDRAL>
3.85047

>  <SCORE.INTRA.DIHEDRAL.0>
1.72662

>  <SCORE.INTRA.POLAR>
0

>  <SCORE.INTRA.POLAR.0>
0

>  <SCORE.INTRA.REPUL>
0

>  <SCORE.INTRA.REPUL.0>
0

>  <SCORE.INTRA.VDW>
-2.82987

>  <SCORE.INTRA.VDW.0>
1.80076

>  <SCORE.INTRA.norm>
-0.0565394

>  <SCORE.RESTR>
0

>  <SCORE.RESTR.CAVITY>
0

>  <SCORE.RESTR.norm>
0

>  <SCORE.SYSTEM>
-1.51354

>  <SCORE.SYSTEM.CONST>
0

>  <SCORE.SYSTEM.DIHEDRAL>
0.40622

>  <SCORE.SYSTEM.POLAR>
-0.503028

>  <SCORE.SYSTEM.VDW>
-0.00635877

>  <SCORE.SYSTEM.norm>
-0.0945965

>  <SCORE.heavy>
16

>  <SCORE.norm>
-0.615201

>  <enum_code>
M

>  <enum_smi>
CCCCN(C)Cc1nc2ccccc2[n-]1

>  <sha256>
6a33d1ae81811c4c560d91d11e3d923a6f2cbbca3c5192f5a65c4f1c1941a1a4

>  <std_smi>
CCCCN(C)Cc1nc2ccccc2[nH]1

>  <uuid>
4703a455-3069-4ba0-90e1-81743559cd1e

$$$$
4703a455-3069-4ba0-90e1-81743559cd1e
  rDOCK(R)          3D
libRbt.so/2013.1/901 2013/11/27
 16 17  0  0  0  0  0  0  0  0999 V2000
   -4.0984   30.7161    4.8281 C   0  0  0  0  0  0
   -4.3979   29.2251    4.8036 C   0  0  0  0  0  0
   -5.6208   28.8301    5.6388 C   0  0  0  0  0  0
   -5.9000   27.3183    5.6172 C   0  0  0  0  0  0
   -6.2371   26.7256    4.3219 N   0  0  0  0  0  0
   -7.6622   26.7787    4.0112 C   0  0  0  0  0  0
   -5.7210   25.3331    4.1888 C   0  0  0  0  0  0
   -4.2296   25.1198    4.2366 C   0  0  0  0  0  0
   -3.6333   23.9016    4.2967 N   0  0  0  0  0  0
   -2.2941   24.1095    4.3593 C   0  0  0  0  0  0
   -1.2166   23.2186    4.4124 C   0  0  0  0  0  0
    0.0703   23.7615    4.4735 C   0  0  0  0  0  0
    0.2785   25.1495    4.4822 C   0  0  0  0  0  0
   -0.7923   26.0466    4.4305 C   0  0  0  0  0  0
   -2.0836   25.5118    4.3686 C   0  0  0  0  0  0
   -3.3024   26.1042    4.3130 N   0  5  0  0  0  0
  1  2  1  0  0  0
  2  3  1  0  0  0
  3  4  1  0  0  0
  4  5  1  0  0  0
  5  6  1  0  0  0
  5  7  1  0  0  0
  7  8  1  0  0  0
  8  9  2  0  0  0
  9 10  1  0  0  0
 10 11  2  0  0  0
 11 12  1  0  0  0
 12 13  2  0  0  0
 13 14  1  0  0  0
 14 15  2  0  0  0
 15 16  1  0  0  0
 16  8  1  0  0  0
 15 10  1  0  0  0
M  END
>  <CHROM.0>
-59.88758699,68.93482286

>  <CHROM.1>
-179.31183534,-63.15110629,-87.49185169,-62.51926180,171.37836025,-3.65160512
26.20320524,4.55595806,-2.46114411,0.03076615,-2.99884376

>  <Name>
4703a455-3069-4ba0-90e1-81743559cd1e

>  <RI>
2.51057e+07

>  <Rbt.Current_Directory>
/data/work/jku/5V6S/work/40/8dba899c20c42488f2b1a17844994e

>  <Rbt.Executable>
rbdock ($Id: //depot/dev/client3/rdock/2013.1/src/exe/rbdock.cxx#4 $)

>  <Rbt.Library>
libRbt.so (2013.1, Build901 2013/11/27)

>  <Rbt.Parameter_File>
/rDock_2013.1_src/data/scripts/dock.prm

>  <Rbt.Receptor>
docking.prm

>  <SCORE>
-10.3557

>  <SCORE.INTER>
-6.2933

>  <SCORE.INTER.CONST>
1

>  <SCORE.INTER.POLAR>
0

>  <SCORE.INTER.REPUL>
0

>  <SCORE.INTER.ROT>
5

>  <SCORE.INTER.VDW>
-16.6933

>  <SCORE.INTER.norm>
-0.393331

>  <SCORE.INTRA>
-2.54874

>  <SCORE.INTRA.DIHEDRAL>
1.01466

>  <SCORE.INTRA.DIHEDRAL.0>
1.72662

>  <SCORE.INTRA.POLAR>
0

>  <SCORE.INTRA.POLAR.0>
0

>  <SCORE.INTRA.REPUL>
0

>  <SCORE.INTRA.REPUL.0>
0

>  <SCORE.INTRA.VDW>
-3.05607

>  <SCORE.INTRA.VDW.0>
1.80076

>  <SCORE.INTRA.norm>
-0.159296

>  <SCORE.RESTR>
0

>  <SCORE.RESTR.CAVITY>
0

>  <SCORE.RESTR.norm>
0

>  <SCORE.SYSTEM>
-1.51367

>  <SCORE.SYSTEM.CONST>
0

>  <SCORE.SYSTEM.DIHEDRAL>
0.394449

>  <SCORE.SYSTEM.POLAR>
-0.502944

>  <SCORE.SYSTEM.VDW>
-0.000879396

>  <SCORE.SYSTEM.norm>
-0.0946041

>  <SCORE.heavy>
16

>  <SCORE.norm>
-0.647232

>  <enum_code>
M

>  <enum_smi>
CCCCN(C)Cc1nc2ccccc2[n-]1

>  <sha256>
6a33d1ae81811c4c560d91d11e3d923a6f2cbbca3c5192f5a65c4f1c1941a1a4

>  <std_smi>
CCCCN(C)Cc1nc2ccccc2[nH]1

>  <uuid>
4703a455-3069-4ba0-90e1-81743559cd1e

$$$$
6ffd671c-1ed6-4462-bfc6-5de4a3036950
  rDOCK(R)          3D
libRbt.so/2013.1/901 2013/11/27
 18 19  0  0  0  0  0  0  0  0999 V2000
   -0.3283   25.3452    6.0911 C   0  0  0  0  0  0
   -1.5414   25.3917    5.1750 C   0  0  0  0  0  0
   -2.5394   26.4945    5.5394 C   0  0  0  0  0  0
   -1.9971   27.8953    5.2626 C   0  0  0  0  0  0
   -3.0168   28.9599    5.5482 N   0  3  0  0  0  0
   -4.2153   28.9463    4.6466 C   0  0  0  0  0  0
   -2.4530   30.3505    5.7733 C   0  0  0  0  0  0
   -1.8584   30.8509    4.5035 C   0  0  0  0  0  0
   -1.6349   30.0931    3.4457 N   0  0  0  0  0  0
   -1.0895   30.9354    2.5046 C   0  0  0  0  0  0
   -0.6601   30.6644    1.1984 C   0  0  0  0  0  0
   -0.1334   31.7147    0.4362 C   0  0  0  0  0  0
   -0.0375   33.0047    0.9636 C   0  0  0  0  0  0
   -0.4619   33.2932    2.2657 C   0  0  0  0  0  0
   -0.9824   32.2289    3.0044 C   0  0  0  0  0  0
   -1.4828   32.1515    4.2800 N   0  0  0  0  0  0
   -3.4094   28.7384    6.4828 H   0  0  0  0  0  0
   -1.5533   32.9305    4.9216 H   0  0  0  0  0  0
  1  2  1  0  0  0
  2  3  1  0  0  0
  3  4  1  0  0  0
  4  5  1  0  0  0
  5  6  1  0  0  0
  5  7  1  0  0  0
  7  8  1  0  0  0
  8  9  2  0  0  0
  9 10  1  0  0  0
 10 11  2  0  0  0
 11 12  1  0  0  0
 12 13  2  0  0  0
 13 14  1  0  0  0
 14 15  2  0  0  0
 15 16  1  0  0  0
 16  8  1  0  0  0
 15 10  1  0  0  0
  5 17  1  0  0  0
 16 18  1  0  0  0
M  END
>  <CHROM.0>
-59.88758699,69.07708132

>  <CHROM.1>
69.24760750,176.60609104,-66.05801769,66.86339897,-12.04443124,-1.57080307
29.79616057,3.88202947,-1.87846821,0.85206005,-0.35091042

>  <Name>
6ffd671c-1ed6-4462-bfc6-5de4a3036950

>  <RI>
1.09212e+07

>  <Rbt.Current_Directory>
/data/work/jku/5V6S/work/40/8dba899c20c42488f2b1a17844994e

>  <Rbt.Executable>
rbdock ($Id: //depot/dev/client3/rdock/2013.1/src/exe/rbdock.cxx#4 $)

>  <Rbt.Library>
libRbt.so (2013.1, Build901 2013/11/27)

>  <Rbt.Parameter_File>
/rDock_2013.1_src/data/scripts/dock.prm

>  <Rbt.Receptor>
docking.prm

>  <SCORE>
-12.8605

>  <SCORE.INTER>
-12.4765

>  <SCORE.INTER.CONST>
1

>  <SCORE.INTER.POLAR>
-0.894427

>  <SCORE.INTER.REPUL>
0

>  <SCORE.INTER.ROT>
5

>  <SCORE.INTER.VDW>
-19.8354

>  <SCORE.INTER.norm>
-0.779778

>  <SCORE.INTRA>
1.12944

>  <SCORE.INTRA.DIHEDRAL>
-1.26196

>  <SCORE.INTRA.DIHEDRAL.0>
3.55272

>  <SCORE.INTRA.POLAR>
0.481351

>  <SCORE.INTRA.POLAR.0>
-0.481351

>  <SCORE.INTRA.REPUL>
0

>  <SCORE.INTRA.REPUL.0>
0

>  <SCORE.INTRA.VDW>
0.123831

>  <SCORE.INTRA.VDW.0>
1.45343

>  <SCORE.INTRA.norm>
0.0705901

>  <SCORE.RESTR>
0

>  <SCORE.RESTR.CAVITY>
0

>  <SCORE.RESTR.norm>
0

>  <SCORE.SYSTEM>
-1.51354

>  <SCORE.SYSTEM.CONST>
0

>  <SCORE.SYSTEM.DIHEDRAL>
0.40663

>  <SCORE.SYSTEM.POLAR>
-0.503031

>  <SCORE.SYSTEM.VDW>
-0.0065475

>  <SCORE.SYSTEM.norm>
-0.094596

>  <SCORE.heavy>
16

>  <SCORE.norm>
-0.803784

>  <enum_code>
M

>  <enum_smi>
CCCC[NH+](C)Cc1nc2ccccc2[nH]1

>  <sha256>
6a33d1ae81811c4c560d91d11e3d923a6f2cbbca3c5192f5a65c4f1c1941a1a4

>  <std_smi>
CCCCN(C)Cc1nc2ccccc2[nH]1

>  <uuid>
6ffd671c-1ed6-4462-bfc6-5de4a3036950

$$$$
6ffd671c-1ed6-4462-bfc6-5de4a3036950
  rDOCK(R)          3D
libRbt.so/2013.1/901 2013/11/27
 18 19  0  0  0  0  0  0  0  0999 V2000
   -7.2650   26.9600    4.2177 C   0  0  0  0  0  0
   -6.0568   26.2860    4.8496 C   0  0  0  0  0  0
   -4.7576   27.0786    4.6798 C   0  0  0  0  0  0
   -3.5602   26.3955    5.3375 C   0  0  0  0  0  0
   -2.2948   27.1840    5.1589 N   0  3  0  0  0  0
   -1.0295   26.4039    5.3596 C   0  0  0  0  0  0
   -2.2768   28.5394    5.8407 C   0  0  0  0  0  0
   -1.9229   29.5863    4.8432 C   0  0  0  0  0  0
   -1.6259   29.3321    3.5822 N   0  0  0  0  0  0
   -1.3688   30.5590    3.0155 C   0  0  0  0  0  0
   -1.0037   30.8824    1.7017 C   0  0  0  0  0  0
   -0.7964   32.2291    1.3775 C   0  0  0  0  0  0
   -0.9499   33.2296    2.3402 C   0  0  0  0  0  0
   -1.3146   32.9246    3.6566 C   0  0  0  0  0  0
   -1.5147   31.5753    3.9538 C   0  0  0  0  0  0
   -1.8724   30.9309    5.1116 N   0  0  0  0  0  0
   -2.2623   27.4522    4.1571 H   0  0  0  0  0  0
   -2.0618   31.3893    5.9934 H   0  0  0  0  0  0
  1  2  1  0  0  0
  2  3  1  0  0  0
  3  4  1  0  0  0
  4  5  1  0  0  0
  5  6  1  0  0  0
  5  7  1  0  0  0
  7  8  1  0  0  0
  8  9  2  0  0  0
  9 10  1  0  0  0
 10 11  2  0  0  0
 11 12  1  0  0  0
 12 13  2  0  0  0
 13 14  1  0  0  0
 14 15  2  0  0  0
 15 16  1  0  0  0
 16  8  1  0  0  0
 15 10  1  0  0  0
  5 17  1  0  0  0
 16 18  1  0  0  0
M  END
>  <CHROM.0>
-59.88758699,68.98635756

>  <CHROM.1>
179.20059518,179.86891167,-160.72473130,-126.55977297,-2.41931971,-2.53947092
29.26930854,4.11667490,2.15701995,0.24282947,2.60012392

>  <Name>
6ffd671c-1ed6-4462-bfc6-5de4a3036950

>  <RI>
1.09212e+07

>  <Rbt.Current_Directory>
/data/work/jku/5V6S/work/40/8dba899c20c42488f2b1a17844994e

>  <Rbt.Executable>
rbdock ($Id: //depot/dev/client3/rdock/2013.1/src/exe/rbdock.cxx#4 $)

>  <Rbt.Library>
libRbt.so (2013.1, Build901 2013/11/27)

>  <Rbt.Parameter_File>
/rDock_2013.1_src/data/scripts/dock.prm

>  <Rbt.Receptor>
docking.prm

>  <SCORE>
-11.9159

>  <SCORE.INTER>
-9.1678

>  <SCORE.INTER.CONST>
1

>  <SCORE.INTER.POLAR>
0

>  <SCORE.INTER.REPUL>
0

>  <SCORE.INTER.ROT>
5

>  <SCORE.INTER.VDW>
-19.5678

>  <SCORE.INTER.norm>
-0.572987

>  <SCORE.INTRA>
-1.23449

>  <SCORE.INTRA.DIHEDRAL>
1.32151

>  <SCORE.INTRA.DIHEDRAL.0>
3.55272

>  <SCORE.INTRA.POLAR>
-0.145437

>  <SCORE.INTRA.POLAR.0>
-0.481351

>  <SCORE.INTRA.REPUL>
0

>  <SCORE.INTRA.REPUL.0>
0

>  <SCORE.INTRA.VDW>
-1.40076

>  <SCORE.INTRA.VDW.0>
1.45343

>  <SCORE.INTRA.norm>
-0.0771558

>  <SCORE.RESTR>
0

>  <SCORE.RESTR.CAVITY>
0

>  <SCORE.RESTR.norm>
0

>  <SCORE.SYSTEM>
-1.51364

>  <SCORE.SYSTEM.CONST>
0

>  <SCORE.SYSTEM.DIHEDRAL>
0.398841

>  <SCORE.SYSTEM.POLAR>
-0.502977

>  <SCORE.SYSTEM.VDW>
-0.00293807

>  <SCORE.SYSTEM.norm>
-0.0946026

>  <SCORE.heavy>
16

>  <SCORE.norm>
-0.744746

>  <enum_code>
M

>  <enum_smi>
CCCC[NH+](C)Cc1nc2ccccc2[nH]1

>  <sha256>
6a33d1ae81811c4c560d91d11e3d923a6f2cbbca3c5192f5a65c4f1c1941a1a4

>  <std_smi>
CCCCN(C)Cc1nc2ccccc2[nH]1

>  <uuid>
6ffd671c-1ed6-4462-bfc6-5de4a3036950

$$$$
6ffd671c-1ed6-4462-bfc6-5de4a3036950
  rDOCK(R)          3D
libRbt.so/2013.1/901 2013/11/27
 18 19  0  0  0  0  0  0  0  0999 V2000
    0.1579   32.4139    1.0175 C   0  0  0  0  0  0
   -1.3461   32.1882    1.0074 C   0  0  0  0  0  0
   -2.1309   33.2721    1.7517 C   0  0  0  0  0  0
   -1.9409   33.2029    3.2657 C   0  0  0  0  0  0
   -2.6056   31.9955    3.8614 N   0  3  0  0  0  0
   -4.1036   31.9956    3.7849 C   0  0  0  0  0  0
   -2.0757   31.5700    5.2181 C   0  0  0  0  0  0
   -1.8656   30.0961    5.2230 C   0  0  0  0  0  0
   -1.6086   29.3849    4.1409 N   0  0  0  0  0  0
   -1.4821   28.0876    4.5808 C   0  0  0  0  0  0
   -1.2107   26.9173    3.8593 C   0  0  0  0  0  0
   -1.1337   25.7048    4.5561 C   0  0  0  0  0  0
   -1.3224   25.6602    5.9395 C   0  0  0  0  0  0
   -1.5936   26.8193    6.6758 C   0  0  0  0  0  0
   -1.6655   28.0143    5.9576 C   0  0  0  0  0  0
   -1.9051   29.3087    6.3459 N   0  0  0  0  0  0
   -2.3289   31.1920    3.2661 H   0  0  0  0  0  0
   -2.0758   29.6042    7.2983 H   0  0  0  0  0  0
  1  2  1  0  0  0
  2  3  1  0  0  0
  3  4  1  0  0  0
  4  5  1  0  0  0
  5  6  1  0  0  0
  5  7  1  0  0  0
  7  8  1  0  0  0
  8  9  2  0  0  0
  9 10  1  0  0  0
 10 11  2  0  0  0
 11 12  1  0  0  0
 12 13  2  0  0  0
 13 14  1  0  0  0
 14 15  2  0  0  0
 15 16  1  0  0  0
 16  8  1  0  0  0
 15 10  1  0  0  0
  5 17  1  0  0  0
 16 18  1  0  0  0
M  END
>  <CHROM.0>
-59.88758699,68.57018554

>  <CHROM.1>
-70.91023825,-69.89322139,-66.67401810,-134.09991233,27.00739275,-1.75558872
29.91143661,4.14358258,-1.67547030,-1.01751843,2.54406422

>  <Name>
6ffd671c-1ed6-4462-bfc6-5de4a3036950

>  <RI>
1.09212e+07

>  <Rbt.Current_Directory>
/data/work/jku/5V6S/work/40/8dba899c20c42488f2b1a17844994e

>  <Rbt.Executable>
rbdock ($Id: //depot/dev/client3/rdock/2013.1/src/exe/rbdock.cxx#4 $)

>  <Rbt.Library>
libRbt.so (2013.1, Build901 2013/11/27)

>  <Rbt.Parameter_File>
/rDock_2013.1_src/data/scripts/dock.prm

>  <Rbt.Receptor>
docking.prm

>  <SCORE>
-10.3083

>  <SCORE.INTER>
-8.47915

>  <SCORE.INTER.CONST>
1

>  <SCORE.INTER.POLAR>
0

>  <SCORE.INTER.REPUL>
0

>  <SCORE.INTER.ROT>
5

>  <SCORE.INTER.VDW>
-18.8792

>  <SCORE.INTER.norm>
-0.529947

>  <SCORE.INTRA>
-0.315985

>  <SCORE.INTRA.DIHEDRAL>
1.68432

>  <SCORE.INTRA.DIHEDRAL.0>
3.55272

>  <SCORE.INTRA.POLAR>
-0.140344

>  <SCORE.INTRA.POLAR.0>
-0.481351

>  <SCORE.INTRA.REPUL>
0

>  <SCORE.INTRA.REPUL.0>
0

>  <SCORE.INTRA.VDW>
-0.680975

>  <SCORE.INTRA.VDW.0>
1.45343

>  <SCORE.INTRA.norm>
-0.0197491

>  <SCORE.RESTR>
0

>  <SCORE.RESTR.CAVITY>
0

>  <SCORE.RESTR.norm>
0

>  <SCORE.SYSTEM>
-1.51312

>  <SCORE.SYSTEM.CONST>
0

>  <SCORE.SYSTEM.DIHEDRAL>
0.364042

>  <SCORE.SYSTEM.POLAR>
-0.502648

>  <SCORE.SYSTEM.VDW>
0.0138612

>  <SCORE.SYSTEM.norm>
-0.0945701

>  <SCORE.heavy>
16

>  <SCORE.norm>
-0.644266

>  <enum_code>
M

>  <enum_smi>
CCCC[NH+](C)Cc1nc2ccccc2[nH]1

>  <sha256>
6a33d1ae81811c4c560d91d11e3d923a6f2cbbca3c5192f5a65c4f1c1941a1a4

>  <std_smi>
CCCCN(C)Cc1nc2ccccc2[nH]1

>  <uuid>
6ffd671c-1ed6-4462-bfc6-5de4a3036950

$$$$
6ffd671c-1ed6-4462-bfc6-5de4a3036950
  rDOCK(R)          3D
libRbt.so/2013.1/901 2013/11/27
 18 19  0  0  0  0  0  0  0  0999 V2000
   -4.5186   22.5834    3.6536 C   0  0  0  0  0  0
   -3.3176   22.0568    4.4240 C   0  0  0  0  0  0
   -2.1795   23.0735    4.5497 C   0  0  0  0  0  0
   -2.5264   24.2348    5.4793 C   0  0  0  0  0  0
   -1.4044   25.2273    5.5824 N   0  3  0  0  0  0
   -0.1952   24.7405    6.3244 C   0  0  0  0  0  0
   -1.8199   26.6336    5.9723 C   0  0  0  0  0  0
   -1.6043   27.5476    4.8171 C   0  0  0  0  0  0
   -1.2453   27.1414    3.6133 N   0  0  0  0  0  0
   -1.1615   28.2857    2.8543 C   0  0  0  0  0  0
   -0.8201   28.4448    1.5044 C   0  0  0  0  0  0
   -0.8087   29.7374    0.9654 C   0  0  0  0  0  0
   -1.1304   30.8451    1.7533 C   0  0  0  0  0  0
   -1.4742   30.7045    3.1028 C   0  0  0  0  0  0
   -1.4776   29.4060    3.6156 C   0  0  0  0  0  0
   -1.7604   28.9099    4.8636 N   0  0  0  0  0  0
   -1.0581   25.3711    4.6149 H   0  0  0  0  0  0
   -2.0351   29.4704    5.6598 H   0  0  0  0  0  0
  1  2  1  0  0  0
  2  3  1  0  0  0
  3  4  1  0  0  0
  4  5  1  0  0  0
  5  6  1  0  0  0
  5  7  1  0  0  0
  7  8  1  0  0  0
  8  9  2  0  0  0
  9 10  1  0  0  0
 10 11  2  0  0  0
 11 12  1  0  0  0
 12 13  2  0  0  0
 13 14  1  0  0  0
 14 15  2  0  0  0
 15 16  1  0  0  0
 16  8  1  0  0  0
 15 10  1  0  0  0
  5 17  1  0  0  0
 16 18  1  0  0  0
M  END
>  <CHROM.0>
-59.88758699,179.25322703

>  <CHROM.1>
70.09190749,-179.54096276,-70.05368730,-112.02579023,6.68203942,-1.74015284
26.72375717,4.00668110,2.09262170,1.12126044,2.31082954

>  <Name>
6ffd671c-1ed6-4462-bfc6-5de4a3036950

>  <RI>
1.09212e+07

>  <Rbt.Current_Directory>
/data/work/jku/5V6S/work/40/8dba899c20c42488f2b1a17844994e

>  <Rbt.Executable>
rbdock ($Id: //depot/dev/client3/rdock/2013.1/src/exe/rbdock.cxx#4 $)

>  <Rbt.Library>
libRbt.so (2013.1, Build901 2013/11/27)

>  <Rbt.Parameter_File>
/rDock_2013.1_src/data/scripts/dock.prm

>  <Rbt.Receptor>
docking.prm

>  <SCORE>
-8.74313

>  <SCORE.INTER>
-8.50682

>  <SCORE.INTER.CONST>
1

>  <SCORE.INTER.POLAR>
0

>  <SCORE.INTER.REPUL>
0

>  <SCORE.INTER.ROT>
5

>  <SCORE.INTER.VDW>
-18.9068

>  <SCORE.INTER.norm>
-0.531676

>  <SCORE.INTRA>
0.0343123

>  <SCORE.INTRA.DIHEDRAL>
2.41016

>  <SCORE.INTRA.DIHEDRAL.0>
3.55272

>  <SCORE.INTRA.POLAR>
-0.212866

>  <SCORE.INTRA.POLAR.0>
-0.481351

>  <SCORE.INTRA.REPUL>
0

>  <SCORE.INTRA.REPUL.0>
0

>  <SCORE.INTRA.VDW>
-0.447026

>  <SCORE.INTRA.VDW.0>
1.45343

>  <SCORE.INTRA.norm>
0.00214452

>  <SCORE.RESTR>
0

>  <SCORE.RESTR.CAVITY>
0

>  <SCORE.RESTR.norm>
0

>  <SCORE.SYSTEM>
-0.270623

>  <SCORE.SYSTEM.CONST>
0

>  <SCORE.SYSTEM.DIHEDRAL>
0.0103829

>  <SCORE.SYSTEM.VDW>
-0.275814

>  <SCORE.SYSTEM.norm>
-0.0169139

>  <SCORE.heavy>
16

>  <SCORE.norm>
-0.546446

>  <enum_code>
M

>  <enum_smi>
CCCC[NH+](C)Cc1nc2ccccc2[nH]1

>  <sha256>
6a33d1ae81811c4c560d91d11e3d923a6f2cbbca3c5192f5a65c4f1c1941a1a4

>  <std_smi>
CCCCN(C)Cc1nc2ccccc2[nH]1

>  <uuid>
6ffd671c-1ed6-4462-bfc6-5de4a3036950

$$$$
6ffd671c-1ed6-4462-bfc6-5de4a3036950
  rDOCK(R)          3D
libRbt.so/2013.1/901 2013/11/27
 18 19  0  0  0  0  0  0  0  0999 V2000
   -2.6280   24.8122    5.7768 C   0  0  0  0  0  0
   -2.0099   26.1083    6.2779 C   0  0  0  0  0  0
   -1.6275   27.0763    5.1547 C   0  0  0  0  0  0
   -2.8440   27.7132    4.4857 C   0  0  0  0  0  0
   -3.4609   28.7822    5.3408 N   0  3  0  0  0  0
   -4.7790   29.3031    4.8499 C   0  0  0  0  0  0
   -2.5126   29.8794    5.7873 C   0  0  0  0  0  0
   -1.9451   30.5560    4.5887 C   0  0  0  0  0  0
   -1.5736   29.9222    3.4917 N   0  0  0  0  0  0
   -1.1168   30.9036    2.6427 C   0  0  0  0  0  0
   -0.6012   30.7986    1.3439 C   0  0  0  0  0  0
   -0.1997   31.9686    0.6872 C   0  0  0  0  0  0
   -0.3101   33.2139    1.3104 C   0  0  0  0  0  0
   -0.8231   33.3372    2.6068 C   0  0  0  0  0  0
   -1.2156   32.1562    3.2393 C   0  0  0  0  0  0
   -1.7504   31.9097    4.4790 N   0  0  0  0  0  0
   -3.6966   28.3279    6.2434 H   0  0  0  0  0  0
   -1.9570   32.6185    5.1707 H   0  0  0  0  0  0
  1  2  1  0  0  0
  2  3  1  0  0  0
  3  4  1  0  0  0
  4  5  1  0  0  0
  5  6  1  0  0  0
  5  7  1  0  0  0
  7  8  1  0  0  0
  8  9  2  0  0  0
  9 10  1  0  0  0
 10 11  2  0  0  0
 11 12  1  0  0  0
 12 13  2  0  0  0
 13 14  1  0  0  0
 14 15  2  0  0  0
 15 16  1  0  0  0
 16  8  1  0  0  0
 15 10  1  0  0  0
  5 17  1  0  0  0
 16 18  1  0  0  0
M  END
>  <CHROM.0>
-59.88758699,68.15935720

>  <CHROM.1>
71.64032172,75.45602091,-170.88838890,59.62395779,-40.02726724,-1.89998737
29.80055220,3.96383244,-2.02328769,0.84861998,-0.21903792

>  <Name>
6ffd671c-1ed6-4462-bfc6-5de4a3036950

>  <RI>
1.09212e+07

>  <Rbt.Current_Directory>
/data/work/jku/5V6S/work/40/8dba899c20c42488f2b1a17844994e

>  <Rbt.Executable>
rbdock ($Id: //depot/dev/client3/rdock/2013.1/src/exe/rbdock.cxx#4 $)

>  <Rbt.Library>
libRbt.so (2013.1, Build901 2013/11/27)

>  <Rbt.Parameter_File>
/rDock_2013.1_src/data/scripts/dock.prm

>  <Rbt.Receptor>
docking.prm

>  <SCORE>
-11.2926

>  <SCORE.INTER>
-11.0132

>  <SCORE.INTER.CONST>
1

>  <SCORE.INTER.POLAR>
-0.894427

>  <SCORE.INTER.REPUL>
0

>  <SCORE.INTER.ROT>
5

>  <SCORE.INTER.VDW>
-18.3721

>  <SCORE.INTER.norm>
-0.688325

>  <SCORE.INTRA>
1.2316

>  <SCORE.INTRA.DIHEDRAL>
-0.484701

>  <SCORE.INTRA.DIHEDRAL.0>
3.55272

>  <SCORE.INTRA.POLAR>
0.481351

>  <SCORE.INTRA.POLAR.0>
-0.481351

>  <SCORE.INTRA.REPUL>
0

>  <SCORE.INTRA.REPUL.0>
0

>  <SCORE.INTRA.VDW>
-0.162645

>  <SCORE.INTRA.VDW.0>
1.45343

>  <SCORE.INTRA.norm>
0.0769747

>  <SCORE.RESTR>
0

>  <SCORE.RESTR.CAVITY>
0

>  <SCORE.RESTR.norm>
0

>  <SCORE.SYSTEM>
-1.51099

>  <SCORE.SYSTEM.CONST>
0

>  <SCORE.SYSTEM.DIHEDRAL>
0.3312

>  <SCORE.SYSTEM.POLAR>
-0.502184

>  <SCORE.SYSTEM.VDW>
0.0308391

>  <SCORE.SYSTEM.norm>
-0.0944367

>  <SCORE.heavy>
16

>  <SCORE.norm>
-0.705787

>  <enum_code>
M

>  <enum_smi>
CCCC[NH+](C)Cc1nc2ccccc2[nH]1

>  <sha256>
6a33d1ae81811c4c560d91d11e3d923a6f2cbbca3c5192f5a65c4f1c1941a1a4

>  <std_smi>
CCCCN(C)Cc1nc2ccccc2[nH]1

>  <uuid>
6ffd671c-1ed6-4462-bfc6-5de4a3036950

$$$$
a38b618f-51ca-47dd-8225-5a214558c6d1
  rDOCK(R)          3D
libRbt.so/2013.1/901 2013/11/27
 17 18  0  0  0  0  0  0  0  0999 V2000
    0.0803   23.1395    4.2618 C   0  0  0  0  0  0
   -1.1319   23.7241    4.9692 C   0  0  0  0  0  0
   -1.4197   25.1514    4.5018 C   0  0  0  0  0  0
   -2.6958   25.6898    5.1490 C   0  0  0  0  0  0
   -3.0139   27.0568    4.5855 N   0  3  0  0  0  0
   -4.4172   27.4978    4.8936 C   0  0  0  0  0  0
   -2.0218   28.0898    5.1497 C   0  0  0  0  0  0
   -1.8754   29.3168    4.3212 C   0  0  0  0  0  0
   -1.8514   30.5629    4.8332 N   0  0  0  0  0  0
   -1.5355   31.4085    3.8156 C   0  0  0  0  0  0
   -1.4426   32.8028    3.7553 C   0  0  0  0  0  0
   -1.0771   33.3724    2.5320 C   0  0  0  0  0  0
   -0.8107   32.5797    1.4045 C   0  0  0  0  0  0
   -0.8993   31.1854    1.4549 C   0  0  0  0  0  0
   -1.2658   30.6058    2.6738 C   0  0  0  0  0  0
   -1.4303   29.3087    3.0492 N   0  5  0  0  0  0
   -2.8648   27.0638    3.5783 H   0  0  0  0  0  0
  1  2  1  0  0  0
  2  3  1  0  0  0
  3  4  1  0  0  0
  4  5  1  0  0  0
  5  6  1  0  0  0
  5  7  1  0  0  0
  7  8  1  0  0  0
  8  9  2  0  0  0
  9 10  1  0  0  0
 10 11  2  0  0  0
 11 12  1  0  0  0
 12 13  2  0  0  0
 13 14  1  0  0  0
 14 15  2  0  0  0
 15 16  1  0  0  0
 16  8  1  0  0  0
 15 10  1  0  0  0
  5 17  1  0  0  0
M  END
>  <CHROM.0>
-59.88758699,68.78841646

>  <CHROM.1>
176.07330346,-175.52051061,165.14041373,157.70047585,135.69892958,-1.70019515
28.69016670,3.87516278,-1.62657861,0.65277227,-0.23327911

>  <Name>
a38b618f-51ca-47dd-8225-5a214558c6d1

>  <RI>
3.52801e+07

>  <Rbt.Current_Directory>
/data/work/jku/5V6S/work/40/8dba899c20c42488f2b1a17844994e

>  <Rbt.Executable>
rbdock ($Id: //depot/dev/client3/rdock/2013.1/src/exe/rbdock.cxx#4 $)

>  <Rbt.Library>
libRbt.so (2013.1, Build901 2013/11/27)

>  <Rbt.Parameter_File>
/rDock_2013.1_src/data/scripts/dock.prm

>  <Rbt.Receptor>
docking.prm

>  <SCORE>
-9.64923

>  <SCORE.INTER>
-8.14051

>  <SCORE.INTER.CONST>
1

>  <SCORE.INTER.POLAR>
0

>  <SCORE.INTER.REPUL>
0.000980338

>  <SCORE.INTER.ROT>
5

>  <SCORE.INTER.VDW>
-18.5454

>  <SCORE.INTER.norm>
-0.508782

>  <SCORE.INTRA>
0.00487938

>  <SCORE.INTRA.DIHEDRAL>
1.12025

>  <SCORE.INTRA.DIHEDRAL.0>
1.70964

>  <SCORE.INTRA.POLAR>
0

>  <SCORE.INTRA.POLAR.0>
0

>  <SCORE.INTRA.REPUL>
0

>  <SCORE.INTRA.REPUL.0>
0

>  <SCORE.INTRA.VDW>
-0.555246

>  <SCORE.INTRA.VDW.0>
0.291663

>  <SCORE.INTRA.norm>
0.000304961

>  <SCORE.RESTR>
0

>  <SCORE.RESTR.CAVITY>
0

>  <SCORE.RESTR.norm>
0

>  <SCORE.SYSTEM>
-1.5136

>  <SCORE.SYSTEM.CONST>
0

>  <SCORE.SYSTEM.DIHEDRAL>
0.382099

>  <SCORE.SYSTEM.POLAR>
-0.502838

>  <SCORE.SYSTEM.VDW>
0.00500235

>  <SCORE.SYSTEM.norm>
-0.0945999

>  <SCORE.heavy>
16

>  <SCORE.norm>
-0.603077

>  <enum_code>
M

>  <enum_smi>
CCCC[NH+](C)Cc1nc2ccccc2[n-]1

>  <sha256>
6a33d1ae81811c4c560d91d11e3d923a6f2cbbca3c5192f5a65c4f1c1941a1a4

>  <std_smi>
CCCCN(C)Cc1nc2ccccc2[nH]1

>  <uuid>
a38b618f-51ca-47dd-8225-5a214558c6d1

$$$$
a38b618f-51ca-47dd-8225-5a214558c6d1
  rDOCK(R)          3D
libRbt.so/2013.1/901 2013/11/27
 17 18  0  0  0  0  0  0  0  0999 V2000
   -7.2587   26.8224    4.1595 C   0  0  0  0  0  0
   -6.0822   26.0741    4.7658 C   0  0  0  0  0  0
   -4.8527   26.9739    4.8966 C   0  0  0  0  0  0
   -3.6659   26.1955    5.4648 C   0  0  0  0  0  0
   -2.4400   27.0810    5.4854 N   0  3  0  0  0  0
   -1.3151   26.4939    6.2906 C   0  0  0  0  0  0
   -1.9582   27.3267    4.0442 C   0  0  0  0  0  0
   -1.6135   28.7427    3.7449 C   0  0  0  0  0  0
   -1.2432   29.1774    2.5245 N   0  0  0  0  0  0
   -1.1751   30.5346    2.5858 C   0  0  0  0  0  0
   -0.7775   31.4926    1.6475 C   0  0  0  0  0  0
   -0.8363   32.8353    2.0322 C   0  0  0  0  0  0
   -1.2784   33.2133    3.3098 C   0  0  0  0  0  0
   -1.6795   32.2636    4.2541 C   0  0  0  0  0  0
   -1.6228   30.9173    3.8796 C   0  0  0  0  0  0
   -1.9425   29.7754    4.5460 N   0  5  0  0  0  0
   -2.6790   28.0016    5.8490 H   0  0  0  0  0  0
  1  2  1  0  0  0
  2  3  1  0  0  0
  3  4  1  0  0  0
  4  5  1  0  0  0
  5  6  1  0  0  0
  5  7  1  0  0  0
  7  8  1  0  0  0
  8  9  2  0  0  0
  9 10  1  0  0  0
 10 11  2  0  0  0
 11 12  1  0  0  0
 12 13  2  0  0  0
 13 14  1  0  0  0
 14 15  2  0  0  0
 15 16  1  0  0  0
 16  8  1  0  0  0
 15 10  1  0  0  0
  5 17  1  0  0  0
M  END
>  <CHROM.0>
-59.88758699,179.61359180

>  <CHROM.1>
-178.15169509,175.78618800,167.84729627,134.74779178,-176.22934956,-2.55472351
29.00397367,4.03476230,2.14027320,0.17612842,2.64859567

>  <Name>
a38b618f-51ca-47dd-8225-5a214558c6d1

>  <RI>
3.52801e+07

>  <Rbt.Current_Directory>
/data/work/jku/5V6S/work/40/8dba899c20c42488f2b1a17844994e

>  <Rbt.Executable>
rbdock ($Id: //depot/dev/client3/rdock/2013.1/src/exe/rbdock.cxx#4 $)

>  <Rbt.Library>
libRbt.so (2013.1, Build901 2013/11/27)

>  <Rbt.Parameter_File>
/rDock_2013.1_src/data/scripts/dock.prm

>  <Rbt.Receptor>
docking.prm

>  <SCORE>
-9.66794

>  <SCORE.INTER>
-8.94499

>  <SCORE.INTER.CONST>
1

>  <SCORE.INTER.POLAR>
0

>  <SCORE.INTER.REPUL>
0

>  <SCORE.INTER.ROT>
5

>  <SCORE.INTER.VDW>
-19.345

>  <SCORE.INTER.norm>
-0.559062

>  <SCORE.INTRA>
-0.451423

>  <SCORE.INTRA.DIHEDRAL>
2.95775

>  <SCORE.INTRA.DIHEDRAL.0>
1.70964

>  <SCORE.INTRA.POLAR>
-0.429496

>  <SCORE.INTRA.POLAR.0>
0

>  <SCORE.INTRA.REPUL>
0

>  <SCORE.INTRA.REPUL.0>
0

>  <SCORE.INTRA.VDW>
-0.470013

>  <SCORE.INTRA.VDW.0>
0.291663

>  <SCORE.INTRA.norm>
-0.0282139

>  <SCORE.RESTR>
0

>  <SCORE.RESTR.CAVITY>
0

>  <SCORE.RESTR.norm>
0

>  <SCORE.SYSTEM>
-0.271523

>  <SCORE.SYSTEM.CONST>
0

>  <SCORE.SYSTEM.DIHEDRAL>
0.00836808

>  <SCORE.SYSTEM.VDW>
-0.275707

>  <SCORE.SYSTEM.norm>
-0.0169702

>  <SCORE.heavy>
16

>  <SCORE.norm>
-0.604246

>  <enum_code>
M

>  <enum_smi>
CCCC[NH+](C)Cc1nc2ccccc2[n-]1

>  <sha256>
6a33d1ae81811c4c560d91d11e3d923a6f2cbbca3c5192f5a65c4f1c1941a1a4

>  <std_smi>
CCCCN(C)Cc1nc2ccccc2[nH]1

>  <uuid>
a38b618f-51ca-47dd-8225-5a214558c6d1

$$$$
a38b618f-51ca-47dd-8225-5a214558c6d1
  rDOCK(R)          3D
libRbt.so/2013.1/901 2013/11/27
 17 18  0  0  0  0  0  0  0  0999 V2000
   -1.0169   33.3754    3.5416 C   0  0  0  0  0  0
   -1.5045   32.8733    2.1918 C   0  0  0  0  0  0
   -1.7633   31.3663    2.2143 C   0  0  0  0  0  0
   -2.2217   30.8718    0.8422 C   0  0  0  0  0  0
   -2.4275   29.3741    0.8844 N   0  3  0  0  0  0
   -3.0800   28.8440   -0.3614 C   0  0  0  0  0  0
   -1.0715   28.6735    1.0845 C   0  0  0  0  0  0
   -1.0435   27.6996    2.2088 C   0  0  0  0  0  0
    0.0094   26.9031    2.4784 N   0  0  0  0  0  0
   -0.2506   26.2810    3.6598 C   0  0  0  0  0  0
    0.4508   25.3048    4.3749 C   0  0  0  0  0  0
   -0.0965   24.8761    5.5878 C   0  0  0  0  0  0
   -1.3028   25.4033    6.0750 C   0  0  0  0  0  0
   -2.0105   26.3804    5.3687 C   0  0  0  0  0  0
   -1.4723   26.8149    4.1532 C   0  0  0  0  0  0
   -1.8995   27.7371    3.2491 N   0  5  0  0  0  0
   -2.9836   29.1197    1.6984 H   0  0  0  0  0  0
  1  2  1  0  0  0
  2  3  1  0  0  0
  3  4  1  0  0  0
  4  5  1  0  0  0
  5  6  1  0  0  0
  5  7  1  0  0  0
  7  8  1  0  0  0
  8  9  2  0  0  0
  9 10  1  0  0  0
 10 11  2  0  0  0
 11 12  1  0  0  0
 12 13  2  0  0  0
 13 14  1  0  0  0
 14 15  2  0  0  0
 15 16  1  0  0  0
 16  8  1  0  0  0
 15 10  1  0  0  0
  5 17  1  0  0  0
M  END
>  <CHROM.0>
-59.88758699,68.87154395

>  <CHROM.1>
-178.69210683,178.23875248,171.12084005,128.01981961,174.24140849,-1.32921935
28.41876006,2.89914985,-2.24219283,1.28113389,-2.98841394

>  <Name>
a38b618f-51ca-47dd-8225-5a214558c6d1

>  <RI>
3.52801e+07

>  <Rbt.Current_Directory>
/data/work/jku/5V6S/work/40/8dba899c20c42488f2b1a17844994e

>  <Rbt.Executable>
rbdock ($Id: //depot/dev/client3/rdock/2013.1/src/exe/rbdock.cxx#4 $)

>  <Rbt.Library>
libRbt.so (2013.1, Build901 2013/11/27)

>  <Rbt.Parameter_File>
/rDock_2013.1_src/data/scripts/dock.prm

>  <Rbt.Receptor>
docking.prm

>  <SCORE>
-10.5015

>  <SCORE.INTER>
-8.72419

>  <SCORE.INTER.CONST>
1

>  <SCORE.INTER.POLAR>
0

>  <SCORE.INTER.REPUL>
0

>  <SCORE.INTER.ROT>
5

>  <SCORE.INTER.VDW>
-19.1242

>  <SCORE.INTER.norm>
-0.545262

>  <SCORE.INTRA>
-0.268915

>  <SCORE.INTRA.DIHEDRAL>
2.97177

>  <SCORE.INTRA.DIHEDRAL.0>
1.70964

>  <SCORE.INTRA.POLAR>
-0.400391

>  <SCORE.INTRA.POLAR.0>
0

>  <SCORE.INTRA.REPUL>
0

>  <SCORE.INTRA.REPUL.0>
0

>  <SCORE.INTRA.VDW>
-0.393474

>  <SCORE.INTRA.VDW.0>
0.291663

>  <SCORE.INTRA.norm>
-0.0168072

>  <SCORE.RESTR>
0.00523977

>  <SCORE.RESTR.CAVITY>
0.00523977

>  <SCORE.RESTR.norm>
0.000327485

>  <SCORE.SYSTEM>
-1.51366

>  <SCORE.SYSTEM.CONST>
0

>  <SCORE.SYSTEM.DIHEDRAL>
0.389088

>  <SCORE.SYSTEM.POLAR>
-0.502901

>  <SCORE.SYSTEM.VDW>
0.00165674

>  <SCORE.SYSTEM.norm>
-0.0946039

>  <SCORE.heavy>
16

>  <SCORE.norm>
-0.656345

>  <enum_code>
M

>  <enum_smi>
CCCC[NH+](C)Cc1nc2ccccc2[n-]1

>  <sha256>
6a33d1ae81811c4c560d91d11e3d923a6f2cbbca3c5192f5a65c4f1c1941a1a4

>  <std_smi>
CCCCN(C)Cc1nc2ccccc2[nH]1

>  <uuid>
a38b618f-51ca-47dd-8225-5a214558c6d1

$$$$
a38b618f-51ca-47dd-8225-5a214558c6d1
  rDOCK(R)          3D
libRbt.so/2013.1/901 2013/11/27
 17 18  0  0  0  0  0  0  0  0999 V2000
   -5.3344   26.9504    4.9255 C   0  0  0  0  0  0
   -4.1978   26.2068    5.6087 C   0  0  0  0  0  0
   -3.6284   25.1067    4.7119 C   0  0  0  0  0  0
   -2.5154   24.3416    5.4282 C   0  0  0  0  0  0
   -1.3231   25.2499    5.6307 N   0  3  0  0  0  0
   -0.2855   24.6498    6.5372 C   0  0  0  0  0  0
   -0.6826   25.5699    4.2680 C   0  0  0  0  0  0
   -1.0099   26.9209    3.7377 C   0  0  0  0  0  0
   -1.4422   27.9387    4.5076 N   0  0  0  0  0  0
   -1.4733   29.0496    3.7232 C   0  0  0  0  0  0
   -1.9031   30.3570    3.9729 C   0  0  0  0  0  0
   -1.7884   31.2834    2.9323 C   0  0  0  0  0  0
   -1.2612   30.9210    1.6828 C   0  0  0  0  0  0
   -0.8274   29.6176    1.4237 C   0  0  0  0  0  0
   -0.9394   28.6827    2.4578 C   0  0  0  0  0  0
   -0.6082   27.3653    2.5305 N   0  5  0  0  0  0
   -1.6261   26.1481    6.0023 H   0  0  0  0  0  0
  1  2  1  0  0  0
  2  3  1  0  0  0
  3  4  1  0  0  0
  4  5  1  0  0  0
  5  6  1  0  0  0
  5  7  1  0  0  0
  7  8  1  0  0  0
  8  9  2  0  0  0
  9 10  1  0  0  0
 10 11  2  0  0  0
 11 12  1  0  0  0
 12 13  2  0  0  0
 13 14  1  0  0  0
 14 15  2  0  0  0
 15 16  1  0  0  0
 16  8  1  0  0  0
 15 10  1  0  0  0
  5 17  1  0  0  0
M  END
>  <CHROM.0>
-59.88758699,-63.37120493

>  <CHROM.1>
-178.30951467,-67.50166275,169.88625547,102.52204588,20.60318223,-1.86081152
27.41531799,4.07745164,1.75698625,-0.24681732,2.64241091

>  <Name>
a38b618f-51ca-47dd-8225-5a214558c6d1

>  <RI>
3.52801e+07

>  <Rbt.Current_Directory>
/data/work/jku/5V6S/work/40/8dba899c20c42488f2b1a17844994e

>  <Rbt.Executable>
rbdock ($Id: //depot/dev/client3/rdock/2013.1/src/exe/rbdock.cxx#4 $)

>  <Rbt.Library>
libRbt.so (2013.1, Build901 2013/11/27)

>  <Rbt.Parameter_File>
/rDock_2013.1_src/data/scripts/dock.prm

>  <Rbt.Receptor>
docking.prm

>  <SCORE>
-7.19344

>  <SCORE.INTER>
-7.7122

>  <SCORE.INTER.CONST>
1

>  <SCORE.INTER.POLAR>
0

>  <SCORE.INTER.REPUL>
0

>  <SCORE.INTER.ROT>
5

>  <SCORE.INTER.VDW>
-18.1122

>  <SCORE.INTER.norm>
-0.482012

>  <SCORE.INTRA>
-0.505935

>  <SCORE.INTRA.DIHEDRAL>
2.92568

>  <SCORE.INTRA.DIHEDRAL.0>
1.70964

>  <SCORE.INTRA.POLAR>
-0.265724

>  <SCORE.INTRA.POLAR.0>
0

>  <SCORE.INTRA.REPUL>
0

>  <SCORE.INTRA.REPUL.0>
0

>  <SCORE.INTRA.VDW>
-1.06532

>  <SCORE.INTRA.VDW.0>
0.291663

>  <SCORE.INTRA.norm>
-0.0316209

>  <SCORE.RESTR>
0

>  <SCORE.RESTR.CAVITY>
0

>  <SCORE.RESTR.norm>
0

>  <SCORE.SYSTEM>
1.02469

>  <SCORE.SYSTEM.CONST>
0

>  <SCORE.SYSTEM.DIHEDRAL>
0.06357

>  <SCORE.SYSTEM.REPUL>
0.146934

>  <SCORE.SYSTEM.VDW>
0.258239

>  <SCORE.SYSTEM.norm>
0.0640433

>  <SCORE.heavy>
16

>  <SCORE.norm>
-0.44959

>  <enum_code>
M

>  <enum_smi>
CCCC[NH+](C)Cc1nc2ccccc2[n-]1

>  <sha256>
6a33d1ae81811c4c560d91d11e3d923a6f2cbbca3c5192f5a65c4f1c1941a1a4

>  <std_smi>
CCCCN(C)Cc1nc2ccccc2[nH]1

>  <uuid>
a38b618f-51ca-47dd-8225-5a214558c6d1

$$$$
a38b618f-51ca-47dd-8225-5a214558c6d1
  rDOCK(R)          3D
libRbt.so/2013.1/901 2013/11/27
 17 18  0  0  0  0  0  0  0  0999 V2000
   -6.6250   24.5924    3.4965 C   0  0  0  0  0  0
   -6.0662   25.5170    4.5663 C   0  0  0  0  0  0
   -4.5470   25.6508    4.4540 C   0  0  0  0  0  0
   -3.9946   26.5402    5.5679 C   0  0  0  0  0  0
   -2.4936   26.6597    5.4259 N   0  3  0  0  0  0
   -1.9546   27.9290    6.0233 C   0  0  0  0  0  0
   -1.8151   25.4535    6.1000 C   0  0  0  0  0  0
   -2.0464   24.1550    5.4117 C   0  0  0  0  0  0
   -3.1016   23.3558    5.6637 N   0  0  0  0  0  0
   -3.0773   22.3567    4.7409 C   0  0  0  0  0  0
   -3.8780   21.2225    4.5718 C   0  0  0  0  0  0
   -3.5874   20.3830    3.4923 C   0  0  0  0  0  0
   -2.5343   20.6640    2.6077 C   0  0  0  0  0  0
   -1.7294   21.7958    2.7670 C   0  0  0  0  0  0
   -2.0108   22.6413    3.8450 C   0  0  0  0  0  0
   -1.4352   23.8003    4.2642 N   0  5  0  0  0  0
   -2.2289   26.6024    4.4444 H   0  0  0  0  0  0
  1  2  1  0  0  0
  2  3  1  0  0  0
  3  4  1  0  0  0
  4  5  1  0  0  0
  5  6  1  0  0  0
  5  7  1  0  0  0
  7  8  1  0  0  0
  8  9  2  0  0  0
  9 10  1  0  0  0
 10 11  2  0  0  0
 11 12  1  0  0  0
 12 13  2  0  0  0
 13 14  1  0  0  0
 14 15  2  0  0  0
 15 16  1  0  0  0
 16  8  1  0  0  0
 15 10  1  0  0  0
  5 17  1  0  0  0
M  END
>  <CHROM.0>
-59.88758699,69.27021258

>  <CHROM.1>
-177.84138540,-179.68230170,153.99808584,68.27105730,-87.98415395,-3.21408473
24.03181664,4.58296069,1.64023430,-0.20251703,0.36734972

>  <Name>
a38b618f-51ca-47dd-8225-5a214558c6d1

>  <RI>
3.52801e+07

>  <Rbt.Current_Directory>
/data/work/jku/5V6S/work/40/8dba899c20c42488f2b1a17844994e

>  <Rbt.Executable>
rbdock ($Id: //depot/dev/client3/rdock/2013.1/src/exe/rbdock.cxx#4 $)

>  <Rbt.Library>
libRbt.so (2013.1, Build901 2013/11/27)

>  <Rbt.Parameter_File>
/rDock_2013.1_src/data/scripts/dock.prm

>  <Rbt.Receptor>
docking.prm

>  <SCORE>
-9.07024

>  <SCORE.INTER>
-6.57299

>  <SCORE.INTER.CONST>
1

>  <SCORE.INTER.POLAR>
0

>  <SCORE.INTER.REPUL>
0

>  <SCORE.INTER.ROT>
5

>  <SCORE.INTER.VDW>
-16.973

>  <SCORE.INTER.norm>
-0.410812

>  <SCORE.INTRA>
-0.984193

>  <SCORE.INTRA.DIHEDRAL>
1.01044

>  <SCORE.INTRA.DIHEDRAL.0>
1.70964

>  <SCORE.INTRA.POLAR>
0

>  <SCORE.INTRA.POLAR.0>
0

>  <SCORE.INTRA.REPUL>
0

>  <SCORE.INTRA.REPUL.0>
0

>  <SCORE.INTRA.VDW>
-1.48941

>  <SCORE.INTRA.VDW.0>
0.291663

>  <SCORE.INTRA.norm>
-0.0615121

>  <SCORE.RESTR>
0

>  <SCORE.RESTR.CAVITY>
0

>  <SCORE.RESTR.norm>
0

>  <SCORE.SYSTEM>
-1.51306

>  <SCORE.SYSTEM.CONST>
0

>  <SCORE.SYSTEM.DIHEDRAL>
0.423452

>  <SCORE.SYSTEM.POLAR>
-0.503122

>  <SCORE.SYSTEM.VDW>
-0.0141689

>  <SCORE.SYSTEM.norm>
-0.094566

>  <SCORE.heavy>
16

>  <SCORE.norm>
-0.56689

>  <enum_code>
M

>  <enum_smi>
CCCC[NH+](C)Cc1nc2ccccc2[n-]1

>  <sha256>
6a33d1ae81811c4c560d91d11e3d923a6f2cbbca3c5192f5a65c4f1c1941a1a4

>  <std_smi>
CCCCN(C)Cc1nc2ccccc2[nH]1

>  <uuid>
a38b618f-51ca-47dd-8225-5a214558c6d1

$$$$
a345691d-b4d7-4e38-861d-1ef0e9014b54
  rDOCK(R)          3D
libRbt.so/2013.1/901 2013/11/27
 16 17  0  0  0  0  0  0  0  0999 V2000
    0.0464   25.2582    4.5369 C   0  0  0  0  0  0
   -1.2322   25.9186    4.4770 N   0  0  0  0  0  0
   -1.5191   26.9948    3.7040 C   0  0  0  0  0  0
   -0.8180   27.6013    2.9229 O   0  0  0  0  0  0
   -2.9771   27.3500    4.0466 C   0  0  0  0  0  0
   -3.6213   28.2518    3.5551 O   0  0  0  0  0  0
   -3.3420   26.4558    4.9955 N   0  0  0  0  0  0
   -4.6514   26.3917    5.6004 C   0  0  0  0  0  0
   -5.6484   25.9241    4.5936 C   0  0  0  0  0  0
   -6.7699   26.7173    4.3372 N   0  0  0  0  0  0
   -7.5686   26.1722    3.4330 N   0  0  0  0  0  0
   -6.9937   24.7059    2.8607 S   0  0  0  0  0  0
   -5.6106   24.7667    3.8442 C   0  0  0  0  0  0
   -4.4411   23.5223    3.8047 Cl  0  0  0  0  0  0
   -2.3011   25.6155    5.2780 C   0  0  0  0  0  0
   -2.3105   24.7500    6.1419 O   0  0  0  0  0  0
  1  2  1  0  0  0
  2  3  1  0  0  0
  3  4  2  0  0  0
  3  5  1  0  0  0
  5  6  2  0  0  0
  5  7  1  0  0  0
  7  8  1  0  0  0
  8  9  1  0  0  0
  9 10  1  0  0  0
 10 11  2  0  0  0
 11 12  1  0  0  0
 12 13  1  0  0  0
 13 14  1  0  0  0
  7 15  1  0  0  0
 15 16  2  0  0  0
 15  2  1  0  0  0
 13  9  2  0  0  0
M  END
>  <CHROM.0>
-59.88758699,69.15372842

>  <CHROM.1>
69.05320151,-124.16764165,-3.97454092,25.73982912,4.12282161,-0.18454600
0.18314984,2.97479373

>  <Name>
a345691d-b4d7-4e38-861d-1ef0e9014b54

>  <RI>
2.62648e+07

>  <Rbt.Current_Directory>
/data/work/jku/5V6S/work/40/8dba899c20c42488f2b1a17844994e

>  <Rbt.Executable>
rbdock ($Id: //depot/dev/client3/rdock/2013.1/src/exe/rbdock.cxx#4 $)

>  <Rbt.Library>
libRbt.so (2013.1, Build901 2013/11/27)

>  <Rbt.Parameter_File>
/rDock_2013.1_src/data/scripts/dock.prm

>  <Rbt.Receptor>
docking.prm

>  <SCORE>
-8.86931

>  <SCORE.INTER>
-7.55337

>  <SCORE.INTER.CONST>
1

>  <SCORE.INTER.POLAR>
0

>  <SCORE.INTER.REPUL>
0

>  <SCORE.INTER.ROT>
2

>  <SCORE.INTER.VDW>
-14.9534

>  <SCORE.INTER.norm>
-0.472086

>  <SCORE.INTRA>
0.197451

>  <SCORE.INTRA.DIHEDRAL>
1.90889

>  <SCORE.INTRA.DIHEDRAL.0>
2.93647

>  <SCORE.INTRA.POLAR>
0

>  <SCORE.INTRA.POLAR.0>
0

>  <SCORE.INTRA.REPUL>
0

>  <SCORE.INTRA.REPUL.0>
0

>  <SCORE.INTRA.VDW>
-0.756992

>  <SCORE.INTRA.VDW.0>
-1.33554

>  <SCORE.INTRA.norm>
0.0123407

>  <SCORE.RESTR>
0

>  <SCORE.RESTR.CAVITY>
0

>  <SCORE.RESTR.norm>
0

>  <SCORE.SYSTEM>
-1.51339

>  <SCORE.SYSTEM.CONST>
0

>  <SCORE.SYSTEM.DIHEDRAL>
0.413267

>  <SCORE.SYSTEM.POLAR>
-0.50307

>  <SCORE.SYSTEM.VDW>
-0.0095823

>  <SCORE.SYSTEM.norm>
-0.0945867

>  <SCORE.heavy>
16

>  <SCORE.norm>
-0.554332

>  <enum_code>
B

>  <enum_smi>
CN1C(=O)C(=O)N(Cc2nnsc2Cl)C1=O

>  <sha256>
fb5c1ff1b2764841ce2246b40802b6c44616d577450af7eb1485b25efbb5245b

>  <std_smi>
CN1C(=O)C(=O)N(Cc2nnsc2Cl)C1=O

>  <uuid>
a345691d-b4d7-4e38-861d-1ef0e9014b54

$$$$
a345691d-b4d7-4e38-861d-1ef0e9014b54
  rDOCK(R)          3D
libRbt.so/2013.1/901 2013/11/27
 16 17  0  0  0  0  0  0  0  0999 V2000
   -6.3880   24.8048    4.2058 C   0  0  0  0  0  0
   -5.5814   25.8432    4.7939 N   0  0  0  0  0  0
   -5.9697   27.1310    4.9635 C   0  0  0  0  0  0
   -7.0218   27.6690    4.6932 O   0  0  0  0  0  0
   -4.7425   27.8376    5.5668 C   0  0  0  0  0  0
   -4.6818   29.0063    5.8835 O   0  0  0  0  0  0
   -3.7887   26.8796    5.6428 N   0  0  0  0  0  0
   -2.4636   27.0835    6.1787 C   0  0  0  0  0  0
   -1.4451   26.6157    5.1940 C   0  0  0  0  0  0
   -1.3432   27.2741    3.9657 N   0  0  0  0  0  0
   -0.4077   26.7443    3.1932 N   0  0  0  0  0  0
    0.3786   25.4550    3.9196 S   0  0  0  0  0  0
   -0.5467   25.5789    5.3382 C   0  0  0  0  0  0
   -0.2933   24.5214    6.6554 Cl  0  0  0  0  0  0
   -4.2701   25.6944    5.1602 C   0  0  0  0  0  0
   -3.6171   24.6676    5.0382 O   0  0  0  0  0  0
  1  2  1  0  0  0
  2  3  1  0  0  0
  3  4  2  0  0  0
  3  5  1  0  0  0
  5  6  2  0  0  0
  5  7  1  0  0  0
  7  8  1  0  0  0
  8  9  1  0  0  0
  9 10  1  0  0  0
 10 11  2  0  0  0
 11 12  1  0  0  0
 12 13  1  0  0  0
 13 14  1  0  0  0
  7 15  1  0  0  0
 15 16  2  0  0  0
 15  2  1  0  0  0
 13  9  2  0  0  0
M  END
>  <CHROM.0>
-59.88758699,68.25525076

>  <CHROM.1>
-127.73056842,64.47291325,-2.81457244,26.20539057,5.07476157,2.88452782,0.06067431
-0.22912417

>  <Name>
a345691d-b4d7-4e38-861d-1ef0e9014b54

>  <RI>
2.62648e+07

>  <Rbt.Current_Directory>
/data/work/jku/5V6S/work/40/8dba899c20c42488f2b1a17844994e

>  <Rbt.Executable>
rbdock ($Id: //depot/dev/client3/rdock/2013.1/src/exe/rbdock.cxx#4 $)

>  <Rbt.Library>
libRbt.so (2013.1, Build901 2013/11/27)

>  <Rbt.Parameter_File>
/rDock_2013.1_src/data/scripts/dock.prm

>  <Rbt.Receptor>
docking.prm

>  <SCORE>
-10.9446

>  <SCORE.INTER>
-9.21132

>  <SCORE.INTER.CONST>
1

>  <SCORE.INTER.POLAR>
0

>  <SCORE.INTER.REPUL>
0

>  <SCORE.INTER.ROT>
2

>  <SCORE.INTER.VDW>
-16.6113

>  <SCORE.INTER.norm>
-0.575708

>  <SCORE.INTRA>
-0.221653

>  <SCORE.INTRA.DIHEDRAL>
-0.243026

>  <SCORE.INTRA.DIHEDRAL.0>
2.93647

>  <SCORE.INTRA.POLAR>
0

>  <SCORE.INTRA.POLAR.0>
0

>  <SCORE.INTRA.REPUL>
0

>  <SCORE.INTRA.REPUL.0>
0

>  <SCORE.INTRA.VDW>
-0.10014

>  <SCORE.INTRA.VDW.0>
-1.33554

>  <SCORE.INTRA.norm>
-0.0138533

>  <SCORE.RESTR>
0

>  <SCORE.RESTR.CAVITY>
0

>  <SCORE.RESTR.norm>
0

>  <SCORE.SYSTEM>
-1.51163

>  <SCORE.SYSTEM.CONST>
0

>  <SCORE.SYSTEM.DIHEDRAL>
0.33873

>  <SCORE.SYSTEM.POLAR>
-0.502305

>  <SCORE.SYSTEM.VDW>
0.0268409

>  <SCORE.SYSTEM.norm>
-0.0944769

>  <SCORE.heavy>
16

>  <SCORE.norm>
-0.684038

>  <enum_code>
B

>  <enum_smi>
CN1C(=O)C(=O)N(Cc2nnsc2Cl)C1=O

>  <sha256>
fb5c1ff1b2764841ce2246b40802b6c44616d577450af7eb1485b25efbb5245b

>  <std_smi>
CN1C(=O)C(=O)N(Cc2nnsc2Cl)C1=O

>  <uuid>
a345691d-b4d7-4e38-861d-1ef0e9014b54

$$$$
a345691d-b4d7-4e38-861d-1ef0e9014b54
  rDOCK(R)          3D
libRbt.so/2013.1/901 2013/11/27
 16 17  0  0  0  0  0  0  0  0999 V2000
   -1.9857   27.7152    5.5060 C   0  0  0  0  0  0
   -1.7083   27.9412    4.1108 N   0  0  0  0  0  0
   -0.8561   27.2055    3.3556 C   0  0  0  0  0  0
   -0.1863   26.2403    3.6542 O   0  0  0  0  0  0
   -0.8676   27.8828    1.9734 C   0  0  0  0  0  0
   -0.2429   27.5187    1.0002 O   0  0  0  0  0  0
   -1.7000   28.9421    2.1091 N   0  0  0  0  0  0
   -2.0386   29.8592    1.0466 C   0  0  0  0  0  0
   -0.9802   30.9041    0.9277 C   0  0  0  0  0  0
    0.3044   30.5203    0.5337 N   0  0  0  0  0  0
    1.1372   31.5481    0.4829 N   0  0  0  0  0  0
    0.4032   32.9974    0.8939 S   0  0  0  0  0  0
   -1.1026   32.2584    1.1590 C   0  0  0  0  0  0
   -2.4660   33.1725    1.6313 Cl  0  0  0  0  0  0
   -2.1853   29.0010    3.3859 C   0  0  0  0  0  0
   -2.9049   29.8872    3.8245 O   0  0  0  0  0  0
  1  2  1  0  0  0
  2  3  1  0  0  0
  3  4  2  0  0  0
  3  5  1  0  0  0
  5  6  2  0  0  0
  5  7  1  0  0  0
  7  8  1  0  0  0
  8  9  1  0  0  0
  9 10  1  0  0  0
 10 11  2  0  0  0
 11 12  1  0  0  0
 12 13  1  0  0  0
 13 14  1  0  0  0
  7 15  1  0  0  0
 15 16  2  0  0  0
 15  2  1  0  0  0
 13  9  2  0  0  0
M  END
>  <CHROM.0>
-59.88758699,69.11772524

>  <CHROM.1>
-83.51690072,65.25890198,-1.09649440,30.08782886,2.11280309,1.69103387,-0.69480520
2.75547427

>  <Name>
a345691d-b4d7-4e38-861d-1ef0e9014b54

>  <RI>
2.62648e+07

>  <Rbt.Current_Directory>
/data/work/jku/5V6S/work/40/8dba899c20c42488f2b1a17844994e

>  <Rbt.Executable>
rbdock ($Id: //depot/dev/client3/rdock/2013.1/src/exe/rbdock.cxx#4 $)

>  <Rbt.Library>
libRbt.so (2013.1, Build901 2013/11/27)

>  <Rbt.Parameter_File>
/rDock_2013.1_src/data/scripts/dock.prm

>  <Rbt.Receptor>
docking.prm

>  <SCORE>
-12.5771

>  <SCORE.INTER>
-10.8276

>  <SCORE.INTER.CONST>
1

>  <SCORE.INTER.POLAR>
0

>  <SCORE.INTER.REPUL>
0

>  <SCORE.INTER.ROT>
2

>  <SCORE.INTER.VDW>
-18.2276

>  <SCORE.INTER.norm>
-0.676725

>  <SCORE.INTRA>
-0.240335

>  <SCORE.INTRA.DIHEDRAL>
-0.322469

>  <SCORE.INTRA.DIHEDRAL.0>
2.93647

>  <SCORE.INTRA.POLAR>
0

>  <SCORE.INTRA.POLAR.0>
0

>  <SCORE.INTRA.REPUL>
0

>  <SCORE.INTRA.REPUL.0>
0

>  <SCORE.INTRA.VDW>
-0.0791005

>  <SCORE.INTRA.VDW.0>
-1.33554

>  <SCORE.INTRA.norm>
-0.0150209

>  <SCORE.RESTR>
0.00426505

>  <SCORE.RESTR.CAVITY>
0.00426505

>  <SCORE.RESTR.norm>
0.000266566

>  <SCORE.SYSTEM>
-1.51346

>  <SCORE.SYSTEM.CONST>
0

>  <SCORE.SYSTEM.DIHEDRAL>
0.410143

>  <SCORE.SYSTEM.POLAR>
-0.503052

>  <SCORE.SYSTEM.VDW>
-0.00815844

>  <SCORE.SYSTEM.norm>
-0.0945915

>  <SCORE.heavy>
16

>  <SCORE.norm>
-0.786071

>  <enum_code>
B

>  <enum_smi>
CN1C(=O)C(=O)N(Cc2nnsc2Cl)C1=O

>  <sha256>
fb5c1ff1b2764841ce2246b40802b6c44616d577450af7eb1485b25efbb5245b

>  <std_smi>
CN1C(=O)C(=O)N(Cc2nnsc2Cl)C1=O

>  <uuid>
a345691d-b4d7-4e38-861d-1ef0e9014b54

$$$$
a345691d-b4d7-4e38-861d-1ef0e9014b54
  rDOCK(R)          3D
libRbt.so/2013.1/901 2013/11/27
 16 17  0  0  0  0  0  0  0  0999 V2000
   -0.6827   26.3826    4.0079 C   0  0  0  0  0  0
   -1.4160   27.5007    3.4725 N   0  0  0  0  0  0
   -2.4533   28.1200    4.0876 C   0  0  0  0  0  0
   -2.9607   27.9024    5.1668 O   0  0  0  0  0  0
   -2.9212   29.1936    3.0887 C   0  0  0  0  0  0
   -3.8262   29.9807    3.2660 O   0  0  0  0  0  0
   -2.1177   29.0422    2.0095 N   0  0  0  0  0  0
   -2.1765   29.8625    0.8229 C   0  0  0  0  0  0
   -1.1147   30.9091    0.8816 C   0  0  0  0  0  0
    0.2016   30.5513    0.5782 N   0  0  0  0  0  0
    1.0326   31.5765    0.6827 N   0  0  0  0  0  0
    0.2600   32.9931    1.1351 S   0  0  0  0  0  0
   -1.2617   32.2422    1.2040 C   0  0  0  0  0  0
   -2.6652   33.1229    1.6187 Cl  0  0  0  0  0  0
   -1.2351   28.0190    2.2176 C   0  0  0  0  0  0
   -0.4322   27.6042    1.3936 O   0  0  0  0  0  0
  1  2  1  0  0  0
  2  3  1  0  0  0
  3  4  2  0  0  0
  3  5  1  0  0  0
  5  6  2  0  0  0
  5  7  1  0  0  0
  7  8  1  0  0  0
  8  9  1  0  0  0
  9 10  1  0  0  0
 10 11  2  0  0  0
 11 12  1  0  0  0
 12 13  1  0  0  0
 13 14  1  0  0  0
  7 15  1  0  0  0
 15 16  2  0  0  0
 15  2  1  0  0  0
 13  9  2  0  0  0
M  END
>  <CHROM.0>
-59.88758699,68.90321384

>  <CHROM.1>
98.99200734,78.24564017,-1.46781026,30.15854702,2.12972571,-1.80022350,0.51493222
-0.35811952

>  <Name>
a345691d-b4d7-4e38-861d-1ef0e9014b54

>  <RI>
2.62648e+07

>  <Rbt.Current_Directory>
/data/work/jku/5V6S/work/40/8dba899c20c42488f2b1a17844994e

>  <Rbt.Executable>
rbdock ($Id: //depot/dev/client3/rdock/2013.1/src/exe/rbdock.cxx#4 $)

>  <Rbt.Library>
libRbt.so (2013.1, Build901 2013/11/27)

>  <Rbt.Parameter_File>
/rDock_2013.1_src/data/scripts/dock.prm

>  <Rbt.Receptor>
docking.prm

>  <SCORE>
-10.6543

>  <SCORE.INTER>
-9.06958

>  <SCORE.INTER.CONST>
1

>  <SCORE.INTER.POLAR>
0

>  <SCORE.INTER.REPUL>
0

>  <SCORE.INTER.ROT>
2

>  <SCORE.INTER.VDW>
-16.4696

>  <SCORE.INTER.norm>
-0.566849

>  <SCORE.INTRA>
-0.0710125

>  <SCORE.INTRA.DIHEDRAL>
0.221862

>  <SCORE.INTRA.DIHEDRAL.0>
2.93647

>  <SCORE.INTRA.POLAR>
0

>  <SCORE.INTRA.POLAR.0>
0

>  <SCORE.INTRA.REPUL>
0

>  <SCORE.INTRA.REPUL.0>
0

>  <SCORE.INTRA.VDW>
-0.181944

>  <SCORE.INTRA.VDW.0>
-1.33554

>  <SCORE.INTRA.norm>
-0.00443828

>  <SCORE.RESTR>
0

>  <SCORE.RESTR.CAVITY>
0

>  <SCORE.RESTR.norm>
0

>  <SCORE.SYSTEM>
-1.51367

>  <SCORE.SYSTEM.CONST>
0

>  <SCORE.SYSTEM.DIHEDRAL>
0.391767

>  <SCORE.SYSTEM.POLAR>
-0.502923

>  <SCORE.SYSTEM.VDW>
0.000386305

>  <SCORE.SYSTEM.norm>
-0.0946043

>  <SCORE.heavy>
16

>  <SCORE.norm>
-0.665892

>  <enum_code>
B

>  <enum_smi>
CN1C(=O)C(=O)N(Cc2nnsc2Cl)C1=O

>  <sha256>
fb5c1ff1b2764841ce2246b40802b6c44616d577450af7eb1485b25efbb5245b

>  <std_smi>
CN1C(=O)C(=O)N(Cc2nnsc2Cl)C1=O

>  <uuid>
a345691d-b4d7-4e38-861d-1ef0e9014b54

$$$$
a345691d-b4d7-4e38-861d-1ef0e9014b54
  rDOCK(R)          3D
libRbt.so/2013.1/901 2013/11/27
 16 17  0  0  0  0  0  0  0  0999 V2000
   -2.1283   27.8040    5.4613 C   0  0  0  0  0  0
   -1.8194   28.0198    4.0710 N   0  0  0  0  0  0
   -0.9425   27.2851    3.3435 C   0  0  0  0  0  0
   -0.2714   26.3289    3.6672 O   0  0  0  0  0  0
   -0.9269   27.9495    1.9551 C   0  0  0  0  0  0
   -0.2756   27.5823    1.0007 O   0  0  0  0  0  0
   -1.7719   29.0021    2.0607 N   0  0  0  0  0  0
   -2.0930   29.9063    0.9819 C   0  0  0  0  0  0
   -1.0399   30.9579    0.8764 C   0  0  0  0  0  0
    0.2419   30.5885    0.4601 N   0  0  0  0  0  0
    1.0703   31.6205    0.4246 N   0  0  0  0  0  0
    0.3353   33.0569    0.8772 S   0  0  0  0  0  0
   -1.1649   32.3059    1.1407 C   0  0  0  0  0  0
   -2.5267   33.2032    1.6486 Cl  0  0  0  0  0  0
   -2.2883   29.0683    3.3249 C   0  0  0  0  0  0
   -3.0264   29.9517    3.7378 O   0  0  0  0  0  0
  1  2  1  0  0  0
  2  3  1  0  0  0
  3  4  2  0  0  0
  3  5  1  0  0  0
  5  6  2  0  0  0
  5  7  1  0  0  0
  7  8  1  0  0  0
  8  9  1  0  0  0
  9 10  1  0  0  0
 10 11  2  0  0  0
 11 12  1  0  0  0
 12 13  1  0  0  0
 13 14  1  0  0  0
  7 15  1  0  0  0
 15 16  2  0  0  0
 15  2  1  0  0  0
 13  9  2  0  0  0
M  END
>  <CHROM.0>
-59.88758699,69.03945558

>  <CHROM.1>
-83.37765804,67.95564824,-1.17281570,30.14980221,2.08328991,1.70378272,-0.69049013
2.76045117

>  <Name>
a345691d-b4d7-4e38-861d-1ef0e9014b54

>  <RI>
2.62648e+07

>  <Rbt.Current_Directory>
/data/work/jku/5V6S/work/40/8dba899c20c42488f2b1a17844994e

>  <Rbt.Executable>
rbdock ($Id: //depot/dev/client3/rdock/2013.1/src/exe/rbdock.cxx#4 $)

>  <Rbt.Library>
libRbt.so (2013.1, Build901 2013/11/27)

>  <Rbt.Parameter_File>
/rDock_2013.1_src/data/scripts/dock.prm

>  <Rbt.Receptor>
docking.prm

>  <SCORE>
-12.5279

>  <SCORE.INTER>
-10.7775

>  <SCORE.INTER.CONST>
1

>  <SCORE.INTER.POLAR>
0

>  <SCORE.INTER.REPUL>
0

>  <SCORE.INTER.ROT>
2

>  <SCORE.INTER.VDW>
-18.1775

>  <SCORE.INTER.norm>
-0.673593

>  <SCORE.INTRA>
-0.236947

>  <SCORE.INTRA.DIHEDRAL>
-0.27092

>  <SCORE.INTRA.DIHEDRAL.0>
2.93647

>  <SCORE.INTRA.POLAR>
0

>  <SCORE.INTRA.POLAR.0>
0

>  <SCORE.INTRA.REPUL>
0

>  <SCORE.INTRA.REPUL.0>
0

>  <SCORE.INTRA.VDW>
-0.101487

>  <SCORE.INTRA.VDW.0>
-1.33554

>  <SCORE.INTRA.norm>
-0.0148092

>  <SCORE.RESTR>
9.82705e-05

>  <SCORE.RESTR.CAVITY>
9.82705e-05

>  <SCORE.RESTR.norm>
6.1419e-06

>  <SCORE.SYSTEM>
-1.51359

>  <SCORE.SYSTEM.CONST>
0

>  <SCORE.SYSTEM.DIHEDRAL>
0.403391

>  <SCORE.SYSTEM.POLAR>
-0.503009

>  <SCORE.SYSTEM.VDW>
-0.00505284

>  <SCORE.SYSTEM.norm>
-0.0945993

>  <SCORE.heavy>
16

>  <SCORE.norm>
-0.782995

>  <enum_code>
B

>  <enum_smi>
CN1C(=O)C(=O)N(Cc2nnsc2Cl)C1=O

>  <sha256>
fb5c1ff1b2764841ce2246b40802b6c44616d577450af7eb1485b25efbb5245b

>  <std_smi>
CN1C(=O)C(=O)N(Cc2nnsc2Cl)C1=O

>  <uuid>
a345691d-b4d7-4e38-861d-1ef0e9014b54

$$$$
